<?xml version="1.0" encoding="UTF-8"?>

<!-- generated on 2021-07-01 03:55:10 by Eclipse SUMO duarouter Version 1.9.2
<configuration xmlns:xsi="http://www.w3.org/2001/XMLSchema-instance" xsi:noNamespaceSchemaLocation="http://sumo.dlr.de/xsd/duarouterConfiguration.xsd">

    <input>
        <net-file value="/home/dikshant/github/SMARTS-lite/ultra/ultra/scenarios/task0-3agents/train_easy_2lane_c_50kmh_mid-density-flow-64/map.net.xml"/>
        <route-files value="/tmp/tmpcnnjt9r0/trips.trips.xml"/>
    </input>

    <output>
        <output-file value="/home/dikshant/github/SMARTS-lite/ultra/ultra/scenarios/task0-3agents/train_easy_2lane_c_50kmh_mid-density-flow-64/traffic/all.rou.xml"/>
        <alternatives-output value="/home/dikshant/github/SMARTS-lite/ultra/ultra/scenarios/task0-3agents/train_easy_2lane_c_50kmh_mid-density-flow-64/traffic/all.rou.alt.xml"/>
    </output>

    <processing>
        <unsorted-input value="true"/>
        <repair value="true"/>
    </processing>

    <report>
        <error-log value="/home/dikshant/.smarts/_duarouter_routing/traffic/all.log"/>
        <no-step-log value="true"/>
    </report>

    <random_number>
        <seed value="3"/>
    </random_number>

</configuration>
-->

<routes xmlns:xsi="http://www.w3.org/2001/XMLSchema-instance" xsi:noNamespaceSchemaLocation="http://sumo.dlr.de/xsd/routes_file.xsd">
    <vType id="actor-default--7972158289131019312" minGap="2.56" maxSpeed="55.50" speedFactor="normc(1.00,0.05,0.20,2.00)" vClass="passenger" accel="3.0" decel="7.5" sigma="0.5047354019143652"/>
    <vehicle id="default-flow-route-edge-north-NS_0_base-edge-east-WE_0_max-7619780531447017676--8611841271810001168--2200-0.0" type="actor-default--7972158289131019312" depart="2.00" departLane="0" departPos="base" departSpeed="max" arrivalLane="0" arrivalPos="max">
        <route edges="edge-north-NS edge-east-WE"/>
    </vehicle>
    <vehicle id="default-flow-route-edge-south-SN_0_base-edge-east-WE_0_max-8376576316283808492--8611841271810001168--100-0.0" type="actor-default--7972158289131019312" depart="2.00" departLane="0" departPos="base" departSpeed="max" arrivalLane="0" arrivalPos="max">
        <route edges="edge-south-SN edge-east-WE"/>
    </vehicle>
    <vehicle id="default-flow-route-edge-north-NS_0_base-edge-east-WE_0_max-7619780531447017676--8611841271810001168--2201-0.0" type="actor-default--7972158289131019312" depart="3.00" departLane="0" departPos="base" departSpeed="max" arrivalLane="0" arrivalPos="max">
        <route edges="edge-north-NS edge-east-WE"/>
    </vehicle>
    <vehicle id="default-flow-route-edge-south-SN_0_base-edge-east-WE_0_max-8376576316283808492--8611841271810001168--101-0.0" type="actor-default--7972158289131019312" depart="4.00" departLane="0" departPos="base" departSpeed="max" arrivalLane="0" arrivalPos="max">
        <route edges="edge-south-SN edge-east-WE"/>
    </vehicle>
    <vehicle id="default-flow-route-edge-south-SN_0_base-edge-west-EW_0_max--6409505801511773193--8611841271810001168--0-0.0" type="actor-default--7972158289131019312" depart="15.00" departLane="0" departPos="base" departSpeed="max" arrivalLane="0" arrivalPos="max">
        <route edges="edge-south-SN edge-west-EW"/>
    </vehicle>
    <vehicle id="default-flow-route-edge-north-NS_0_base-edge-west-EW_0_max--9201690798924167721--8611841271810001168--2300-0.0" type="actor-default--7972158289131019312" depart="16.00" departLane="0" departPos="base" departSpeed="max" arrivalLane="0" arrivalPos="max">
        <route edges="edge-north-NS edge-west-EW"/>
    </vehicle>
    <vehicle id="default-flow-route-edge-south-SN_0_base-edge-north-SN_0_max--3330647475869855925--8611841271810001168--200-0.0" type="actor-default--7972158289131019312" depart="16.00" departLane="0" departPos="base" departSpeed="max" arrivalLane="0" arrivalPos="max">
        <route edges="edge-south-SN edge-north-SN"/>
    </vehicle>
    <vehicle id="default-flow-route-edge-south-SN_0_base-edge-west-EW_0_max--6409505801511773193--8611841271810001168--1-0.0" type="actor-default--7972158289131019312" depart="17.00" departLane="0" departPos="base" departSpeed="max" arrivalLane="0" arrivalPos="max">
        <route edges="edge-south-SN edge-west-EW"/>
    </vehicle>
    <vehicle id="default-flow-route-edge-south-SN_0_base-edge-north-SN_0_max--3330647475869855925--8611841271810001168--201-0.0" type="actor-default--7972158289131019312" depart="20.00" departLane="0" departPos="base" departSpeed="max" arrivalLane="0" arrivalPos="max">
        <route edges="edge-south-SN edge-north-SN"/>
    </vehicle>
    <vehicle id="default-flow-route-edge-south-SN_0_base-edge-west-EW_0_max--6409505801511773193--8611841271810001168--2-0.0" type="actor-default--7972158289131019312" depart="22.00" departLane="0" departPos="base" departSpeed="max" arrivalLane="0" arrivalPos="max">
        <route edges="edge-south-SN edge-west-EW"/>
    </vehicle>
    <vehicle id="default-flow-route-edge-north-NS_0_base-edge-south-NS_0_max-6354198324389824595--8611841271810001168--1200-0.0" type="actor-default--7972158289131019312" depart="23.00" departLane="0" departPos="base" departSpeed="max" arrivalLane="0" arrivalPos="max">
        <route edges="edge-north-NS edge-south-NS"/>
    </vehicle>
    <vehicle id="default-flow-route-edge-south-SN_0_base-edge-east-WE_0_max-8376576316283808492--8611841271810001168--102-0.0" type="actor-default--7972158289131019312" depart="23.00" departLane="0" departPos="base" departSpeed="max" arrivalLane="0" arrivalPos="max">
        <route edges="edge-south-SN edge-east-WE"/>
    </vehicle>
    <vehicle id="default-flow-route-edge-south-SN_0_base-edge-west-EW_0_max--6409505801511773193--8611841271810001168--3-0.0" type="actor-default--7972158289131019312" depart="23.00" departLane="0" departPos="base" departSpeed="max" arrivalLane="0" arrivalPos="max">
        <route edges="edge-south-SN edge-west-EW"/>
    </vehicle>
    <vehicle id="default-flow-route-edge-south-SN_0_base-edge-east-WE_0_max-8376576316283808492--8611841271810001168--103-0.0" type="actor-default--7972158289131019312" depart="25.00" departLane="0" departPos="base" departSpeed="max" arrivalLane="0" arrivalPos="max">
        <route edges="edge-south-SN edge-east-WE"/>
    </vehicle>
    <vehicle id="default-flow-route-edge-south-SN_0_base-edge-east-WE_0_max-8376576316283808492--8611841271810001168--104-0.0" type="actor-default--7972158289131019312" depart="30.00" departLane="0" departPos="base" departSpeed="max" arrivalLane="0" arrivalPos="max">
        <route edges="edge-south-SN edge-east-WE"/>
    </vehicle>
    <vehicle id="default-flow-route-edge-north-NS_0_base-edge-south-NS_0_max-6354198324389824595--8611841271810001168--1201-0.0" type="actor-default--7972158289131019312" depart="34.00" departLane="0" departPos="base" departSpeed="max" arrivalLane="0" arrivalPos="max">
        <route edges="edge-north-NS edge-south-NS"/>
    </vehicle>
    <vehicle id="default-flow-route-edge-south-SN_0_base-edge-west-EW_0_max--6409505801511773193--8611841271810001168--4-0.0" type="actor-default--7972158289131019312" depart="36.00" departLane="0" departPos="base" departSpeed="max" arrivalLane="0" arrivalPos="max">
        <route edges="edge-south-SN edge-west-EW"/>
    </vehicle>
    <vehicle id="default-flow-route-edge-north-NS_0_base-edge-east-WE_0_max-7619780531447017676--8611841271810001168--2202-0.0" type="actor-default--7972158289131019312" depart="37.00" departLane="0" departPos="base" departSpeed="max" arrivalLane="0" arrivalPos="max">
        <route edges="edge-north-NS edge-east-WE"/>
    </vehicle>
    <vehicle id="default-flow-route-edge-north-NS_0_base-edge-east-WE_0_max-7619780531447017676--8611841271810001168--2203-0.0" type="actor-default--7972158289131019312" depart="39.00" departLane="0" departPos="base" departSpeed="max" arrivalLane="0" arrivalPos="max">
        <route edges="edge-north-NS edge-east-WE"/>
    </vehicle>
    <vehicle id="default-flow-route-edge-south-SN_0_base-edge-north-SN_0_max--3330647475869855925--8611841271810001168--202-0.0" type="actor-default--7972158289131019312" depart="42.00" departLane="0" departPos="base" departSpeed="max" arrivalLane="0" arrivalPos="max">
        <route edges="edge-south-SN edge-north-SN"/>
    </vehicle>
    <vehicle id="default-flow-route-edge-south-SN_0_base-edge-north-SN_0_max--3330647475869855925--8611841271810001168--203-0.0" type="actor-default--7972158289131019312" depart="60.00" departLane="0" departPos="base" departSpeed="max" arrivalLane="0" arrivalPos="max">
        <route edges="edge-south-SN edge-north-SN"/>
    </vehicle>
    <vehicle id="default-flow-route-edge-south-SN_0_base-edge-north-SN_0_max--3330647475869855925--8611841271810001168--204-0.0" type="actor-default--7972158289131019312" depart="63.00" departLane="0" departPos="base" departSpeed="max" arrivalLane="0" arrivalPos="max">
        <route edges="edge-south-SN edge-north-SN"/>
    </vehicle>
    <vehicle id="default-flow-route-edge-north-NS_0_base-edge-south-NS_0_max-6354198324389824595--8611841271810001168--1202-0.0" type="actor-default--7972158289131019312" depart="71.00" departLane="0" departPos="base" departSpeed="max" arrivalLane="0" arrivalPos="max">
        <route edges="edge-north-NS edge-south-NS"/>
    </vehicle>
    <vehicle id="default-flow-route-edge-north-NS_0_base-edge-east-WE_0_max-7619780531447017676--8611841271810001168--2204-0.0" type="actor-default--7972158289131019312" depart="77.00" departLane="0" departPos="base" departSpeed="max" arrivalLane="0" arrivalPos="max">
        <route edges="edge-north-NS edge-east-WE"/>
    </vehicle>
    <vehicle id="default-flow-route-edge-south-SN_0_base-edge-east-WE_0_max-8376576316283808492--8611841271810001168--105-0.0" type="actor-default--7972158289131019312" depart="79.00" departLane="0" departPos="base" departSpeed="max" arrivalLane="0" arrivalPos="max">
        <route edges="edge-south-SN edge-east-WE"/>
    </vehicle>
    <vehicle id="default-flow-route-edge-south-SN_0_base-edge-west-EW_0_max--6409505801511773193--8611841271810001168--5-0.0" type="actor-default--7972158289131019312" depart="80.00" departLane="0" departPos="base" departSpeed="max" arrivalLane="0" arrivalPos="max">
        <route edges="edge-south-SN edge-west-EW"/>
    </vehicle>
    <vehicle id="default-flow-route-edge-north-NS_0_base-edge-south-NS_0_max-6354198324389824595--8611841271810001168--1203-0.0" type="actor-default--7972158289131019312" depart="83.00" departLane="0" departPos="base" departSpeed="max" arrivalLane="0" arrivalPos="max">
        <route edges="edge-north-NS edge-south-NS"/>
    </vehicle>
    <vehicle id="default-flow-route-edge-north-NS_0_base-edge-east-WE_0_max-7619780531447017676--8611841271810001168--2205-0.0" type="actor-default--7972158289131019312" depart="99.00" departLane="0" departPos="base" departSpeed="max" arrivalLane="0" arrivalPos="max">
        <route edges="edge-north-NS edge-east-WE"/>
    </vehicle>
    <vehicle id="default-flow-route-edge-south-SN_0_base-edge-west-EW_0_max--6409505801511773193--8611841271810001168--6-0.0" type="actor-default--7972158289131019312" depart="100.00" departLane="0" departPos="base" departSpeed="max" arrivalLane="0" arrivalPos="max">
        <route edges="edge-south-SN edge-west-EW"/>
    </vehicle>
    <vType id="actor-blocker-132896880522379009" minGap="1.10" maxSpeed="55.50" speedFactor="normc(0.20,0.10,0.20,2.00)" vClass="passenger" impatience="0.00" lcStrategic="0" lcCooperative="0.0" lcSpeedGain="1" lcKeepRight="0.0" lcOpposite="0" lcPushy="0" lcImpatience="0.0" lcTimeToImpatience="1000" lcOvertakeRight="0" jmIgnoreFoeProb="0.0" jmTimegapMinor="1.0" accel="3.0" decel="7.5" sigma="0"/>
    <vehicle id="blocker-flow-route-edge-south-SN_0_base-edge-west-EW_0_max--6409505801511773193---3208195399076283168--7-0.0" type="actor-blocker-132896880522379009" depart="108.00" departLane="0" departPos="base" departSpeed="max" arrivalLane="0" arrivalPos="max">
        <route edges="edge-south-SN edge-west-EW"/>
    </vehicle>
    <vehicle id="default-flow-route-edge-south-SN_0_base-edge-west-EW_0_max--6409505801511773193--8611841271810001168--8-0.0" type="actor-default--7972158289131019312" depart="111.00" departLane="0" departPos="base" departSpeed="max" arrivalLane="0" arrivalPos="max">
        <route edges="edge-south-SN edge-west-EW"/>
    </vehicle>
    <vType id="actor-aggressive-538156094826588776" minGap="1.02" maxSpeed="55.50" speedFactor="normc(1.50,0.10,0.20,2.00)" vClass="passenger" impatience="0.98" lcStrategic="10" lcSpeedGain="200" lcPushy="1.0" lcImpatience="1.0" lcTimeToImpatience="0.01" lcLookaheadLeft="0.0" lcOvertakeRight="1" jmIgnoreFoeProb="0.98" jmTimegapMinor="0.1" accel="10.0" decel="10.0" sigma="0.28997252784647576"/>
    <vehicle id="aggressive-flow-route-edge-south-SN_0_base-edge-east-WE_0_max-8376576316283808492--1777544607255311857--106-0.0" type="actor-aggressive-538156094826588776" depart="125.00" departLane="0" departPos="base" departSpeed="max" arrivalLane="0" arrivalPos="max">
        <route edges="edge-south-SN edge-east-WE"/>
    </vehicle>
    <vehicle id="default-flow-route-edge-south-SN_0_base-edge-west-EW_0_max--6409505801511773193--8611841271810001168--9-0.0" type="actor-default--7972158289131019312" depart="128.00" departLane="0" departPos="base" departSpeed="max" arrivalLane="0" arrivalPos="max">
        <route edges="edge-south-SN edge-west-EW"/>
    </vehicle>
    <vehicle id="default-flow-route-edge-north-NS_0_base-edge-east-WE_0_max-7619780531447017676--8611841271810001168--2206-0.0" type="actor-default--7972158289131019312" depart="136.00" departLane="0" departPos="base" departSpeed="max" arrivalLane="0" arrivalPos="max">
        <route edges="edge-north-NS edge-east-WE"/>
    </vehicle>
    <vehicle id="default-flow-route-edge-south-SN_0_base-edge-north-SN_0_max--3330647475869855925--8611841271810001168--205-0.0" type="actor-default--7972158289131019312" depart="136.00" departLane="0" departPos="base" departSpeed="max" arrivalLane="0" arrivalPos="max">
        <route edges="edge-south-SN edge-north-SN"/>
    </vehicle>
    <vehicle id="default-flow-route-edge-south-SN_0_base-edge-west-EW_0_max--6409505801511773193--8611841271810001168--10-0.0" type="actor-default--7972158289131019312" depart="155.00" departLane="0" departPos="base" departSpeed="max" arrivalLane="0" arrivalPos="max">
        <route edges="edge-south-SN edge-west-EW"/>
    </vehicle>
    <vehicle id="default-flow-route-edge-south-SN_0_base-edge-north-SN_0_max--3330647475869855925--8611841271810001168--206-0.0" type="actor-default--7972158289131019312" depart="157.00" departLane="0" departPos="base" departSpeed="max" arrivalLane="0" arrivalPos="max">
        <route edges="edge-south-SN edge-north-SN"/>
    </vehicle>
    <vehicle id="default-flow-route-edge-north-NS_0_base-edge-east-WE_0_max-7619780531447017676--8611841271810001168--2207-0.0" type="actor-default--7972158289131019312" depart="161.00" departLane="0" departPos="base" departSpeed="max" arrivalLane="0" arrivalPos="max">
        <route edges="edge-north-NS edge-east-WE"/>
    </vehicle>
    <vehicle id="default-flow-route-edge-north-NS_0_base-edge-west-EW_0_max--9201690798924167721--8611841271810001168--2301-0.0" type="actor-default--7972158289131019312" depart="167.00" departLane="0" departPos="base" departSpeed="max" arrivalLane="0" arrivalPos="max">
        <route edges="edge-north-NS edge-west-EW"/>
    </vehicle>
    <vehicle id="default-flow-route-edge-north-NS_0_base-edge-west-EW_0_max--9201690798924167721--8611841271810001168--2302-0.0" type="actor-default--7972158289131019312" depart="174.00" departLane="0" departPos="base" departSpeed="max" arrivalLane="0" arrivalPos="max">
        <route edges="edge-north-NS edge-west-EW"/>
    </vehicle>
    <vehicle id="aggressive-flow-route-edge-north-NS_0_base-edge-east-WE_0_max-7619780531447017676--1777544607255311857--2208-0.0" type="actor-aggressive-538156094826588776" depart="177.00" departLane="0" departPos="base" departSpeed="max" arrivalLane="0" arrivalPos="max">
        <route edges="edge-north-NS edge-east-WE"/>
    </vehicle>
    <vehicle id="default-flow-route-edge-south-SN_0_base-edge-east-WE_0_max-8376576316283808492--8611841271810001168--107-0.0" type="actor-default--7972158289131019312" depart="178.00" departLane="0" departPos="base" departSpeed="max" arrivalLane="0" arrivalPos="max">
        <route edges="edge-south-SN edge-east-WE"/>
    </vehicle>
    <vehicle id="default-flow-route-edge-south-SN_0_base-edge-west-EW_0_max--6409505801511773193--8611841271810001168--11-0.0" type="actor-default--7972158289131019312" depart="178.00" departLane="0" departPos="base" departSpeed="max" arrivalLane="0" arrivalPos="max">
        <route edges="edge-south-SN edge-west-EW"/>
    </vehicle>
    <vehicle id="default-flow-route-edge-north-NS_0_base-edge-south-NS_0_max-6354198324389824595--8611841271810001168--1204-0.0" type="actor-default--7972158289131019312" depart="183.00" departLane="0" departPos="base" departSpeed="max" arrivalLane="0" arrivalPos="max">
        <route edges="edge-north-NS edge-south-NS"/>
    </vehicle>
    <vehicle id="default-flow-route-edge-south-SN_0_base-edge-north-SN_0_max--3330647475869855925--8611841271810001168--207-0.0" type="actor-default--7972158289131019312" depart="189.00" departLane="0" departPos="base" departSpeed="max" arrivalLane="0" arrivalPos="max">
        <route edges="edge-south-SN edge-north-SN"/>
    </vehicle>
    <vehicle id="default-flow-route-edge-north-NS_0_base-edge-south-NS_0_max-6354198324389824595--8611841271810001168--1205-0.0" type="actor-default--7972158289131019312" depart="194.00" departLane="0" departPos="base" departSpeed="max" arrivalLane="0" arrivalPos="max">
        <route edges="edge-north-NS edge-south-NS"/>
    </vehicle>
    <vehicle id="default-flow-route-edge-north-NS_0_base-edge-west-EW_0_max--9201690798924167721--8611841271810001168--2303-0.0" type="actor-default--7972158289131019312" depart="204.00" departLane="0" departPos="base" departSpeed="max" arrivalLane="0" arrivalPos="max">
        <route edges="edge-north-NS edge-west-EW"/>
    </vehicle>
    <vehicle id="default-flow-route-edge-north-NS_0_base-edge-west-EW_0_max--9201690798924167721--8611841271810001168--2304-0.0" type="actor-default--7972158289131019312" depart="209.00" departLane="0" departPos="base" departSpeed="max" arrivalLane="0" arrivalPos="max">
        <route edges="edge-north-NS edge-west-EW"/>
    </vehicle>
    <vehicle id="default-flow-route-edge-south-SN_0_base-edge-north-SN_0_max--3330647475869855925--8611841271810001168--208-0.0" type="actor-default--7972158289131019312" depart="209.00" departLane="0" departPos="base" departSpeed="max" arrivalLane="0" arrivalPos="max">
        <route edges="edge-south-SN edge-north-SN"/>
    </vehicle>
    <vehicle id="default-flow-route-edge-north-NS_0_base-edge-south-NS_0_max-6354198324389824595--8611841271810001168--1206-0.0" type="actor-default--7972158289131019312" depart="211.00" departLane="0" departPos="base" departSpeed="max" arrivalLane="0" arrivalPos="max">
        <route edges="edge-north-NS edge-south-NS"/>
    </vehicle>
    <vehicle id="default-flow-route-edge-south-SN_0_base-edge-west-EW_0_max--6409505801511773193--8611841271810001168--12-0.0" type="actor-default--7972158289131019312" depart="211.00" departLane="0" departPos="base" departSpeed="max" arrivalLane="0" arrivalPos="max">
        <route edges="edge-south-SN edge-west-EW"/>
    </vehicle>
    <vehicle id="default-flow-route-edge-south-SN_0_base-edge-west-EW_0_max--6409505801511773193--8611841271810001168--13-0.0" type="actor-default--7972158289131019312" depart="213.00" departLane="0" departPos="base" departSpeed="max" arrivalLane="0" arrivalPos="max">
        <route edges="edge-south-SN edge-west-EW"/>
    </vehicle>
    <vehicle id="default-flow-route-edge-south-SN_0_base-edge-north-SN_0_max--3330647475869855925--8611841271810001168--209-0.0" type="actor-default--7972158289131019312" depart="216.00" departLane="0" departPos="base" departSpeed="max" arrivalLane="0" arrivalPos="max">
        <route edges="edge-south-SN edge-north-SN"/>
    </vehicle>
    <vehicle id="default-flow-route-edge-south-SN_0_base-edge-west-EW_0_max--6409505801511773193--8611841271810001168--14-0.0" type="actor-default--7972158289131019312" depart="220.00" departLane="0" departPos="base" departSpeed="max" arrivalLane="0" arrivalPos="max">
        <route edges="edge-south-SN edge-west-EW"/>
    </vehicle>
    <vehicle id="default-flow-route-edge-north-NS_0_base-edge-west-EW_0_max--9201690798924167721--8611841271810001168--2305-0.0" type="actor-default--7972158289131019312" depart="224.00" departLane="0" departPos="base" departSpeed="max" arrivalLane="0" arrivalPos="max">
        <route edges="edge-north-NS edge-west-EW"/>
    </vehicle>
    <vehicle id="default-flow-route-edge-north-NS_0_base-edge-south-NS_0_max-6354198324389824595--8611841271810001168--1207-0.0" type="actor-default--7972158289131019312" depart="234.00" departLane="0" departPos="base" departSpeed="max" arrivalLane="0" arrivalPos="max">
        <route edges="edge-north-NS edge-south-NS"/>
    </vehicle>
    <vehicle id="default-flow-route-edge-south-SN_0_base-edge-east-WE_0_max-8376576316283808492--8611841271810001168--108-0.0" type="actor-default--7972158289131019312" depart="239.00" departLane="0" departPos="base" departSpeed="max" arrivalLane="0" arrivalPos="max">
        <route edges="edge-south-SN edge-east-WE"/>
    </vehicle>
    <vehicle id="default-flow-route-edge-north-NS_0_base-edge-east-WE_0_max-7619780531447017676--8611841271810001168--2209-0.0" type="actor-default--7972158289131019312" depart="245.00" departLane="0" departPos="base" departSpeed="max" arrivalLane="0" arrivalPos="max">
        <route edges="edge-north-NS edge-east-WE"/>
    </vehicle>
    <vehicle id="default-flow-route-edge-south-SN_0_base-edge-north-SN_0_max--3330647475869855925--8611841271810001168--210-0.0" type="actor-default--7972158289131019312" depart="265.00" departLane="0" departPos="base" departSpeed="max" arrivalLane="0" arrivalPos="max">
        <route edges="edge-south-SN edge-north-SN"/>
    </vehicle>
    <vehicle id="default-flow-route-edge-north-NS_0_base-edge-south-NS_0_max-6354198324389824595--8611841271810001168--1208-0.0" type="actor-default--7972158289131019312" depart="266.00" departLane="0" departPos="base" departSpeed="max" arrivalLane="0" arrivalPos="max">
        <route edges="edge-north-NS edge-south-NS"/>
    </vehicle>
    <vehicle id="default-flow-route-edge-south-SN_0_base-edge-west-EW_0_max--6409505801511773193--8611841271810001168--15-0.0" type="actor-default--7972158289131019312" depart="267.00" departLane="0" departPos="base" departSpeed="max" arrivalLane="0" arrivalPos="max">
        <route edges="edge-south-SN edge-west-EW"/>
    </vehicle>
    <vehicle id="default-flow-route-edge-south-SN_0_base-edge-west-EW_0_max--6409505801511773193--8611841271810001168--16-0.0" type="actor-default--7972158289131019312" depart="276.00" departLane="0" departPos="base" departSpeed="max" arrivalLane="0" arrivalPos="max">
        <route edges="edge-south-SN edge-west-EW"/>
    </vehicle>
    <vehicle id="default-flow-route-edge-south-SN_0_base-edge-north-SN_0_max--3330647475869855925--8611841271810001168--211-0.0" type="actor-default--7972158289131019312" depart="279.00" departLane="0" departPos="base" departSpeed="max" arrivalLane="0" arrivalPos="max">
        <route edges="edge-south-SN edge-north-SN"/>
    </vehicle>
    <vehicle id="blocker-flow-route-edge-south-SN_0_base-edge-west-EW_0_max--6409505801511773193---3208195399076283168--17-0.0" type="actor-blocker-132896880522379009" depart="283.00" departLane="0" departPos="base" departSpeed="max" arrivalLane="0" arrivalPos="max">
        <route edges="edge-south-SN edge-west-EW"/>
    </vehicle>
    <vehicle id="default-flow-route-edge-south-SN_0_base-edge-east-WE_0_max-8376576316283808492--8611841271810001168--109-0.0" type="actor-default--7972158289131019312" depart="283.00" departLane="0" departPos="base" departSpeed="max" arrivalLane="0" arrivalPos="max">
        <route edges="edge-south-SN edge-east-WE"/>
    </vehicle>
    <vehicle id="default-flow-route-edge-north-NS_0_base-edge-east-WE_0_max-7619780531447017676--8611841271810001168--2210-0.0" type="actor-default--7972158289131019312" depart="284.00" departLane="0" departPos="base" departSpeed="max" arrivalLane="0" arrivalPos="max">
        <route edges="edge-north-NS edge-east-WE"/>
    </vehicle>
    <vehicle id="default-flow-route-edge-north-NS_0_base-edge-south-NS_0_max-6354198324389824595--8611841271810001168--1209-0.0" type="actor-default--7972158289131019312" depart="289.00" departLane="0" departPos="base" departSpeed="max" arrivalLane="0" arrivalPos="max">
        <route edges="edge-north-NS edge-south-NS"/>
    </vehicle>
    <vehicle id="default-flow-route-edge-south-SN_0_base-edge-north-SN_0_max--3330647475869855925--8611841271810001168--212-0.0" type="actor-default--7972158289131019312" depart="289.00" departLane="0" departPos="base" departSpeed="max" arrivalLane="0" arrivalPos="max">
        <route edges="edge-south-SN edge-north-SN"/>
    </vehicle>
    <vehicle id="default-flow-route-edge-south-SN_0_base-edge-north-SN_0_max--3330647475869855925--8611841271810001168--213-0.0" type="actor-default--7972158289131019312" depart="294.00" departLane="0" departPos="base" departSpeed="max" arrivalLane="0" arrivalPos="max">
        <route edges="edge-south-SN edge-north-SN"/>
    </vehicle>
    <vehicle id="default-flow-route-edge-north-NS_0_base-edge-west-EW_0_max--9201690798924167721--8611841271810001168--2306-0.0" type="actor-default--7972158289131019312" depart="295.00" departLane="0" departPos="base" departSpeed="max" arrivalLane="0" arrivalPos="max">
        <route edges="edge-north-NS edge-west-EW"/>
    </vehicle>
    <vehicle id="default-flow-route-edge-north-NS_0_base-edge-south-NS_0_max-6354198324389824595--8611841271810001168--1210-0.0" type="actor-default--7972158289131019312" depart="297.00" departLane="0" departPos="base" departSpeed="max" arrivalLane="0" arrivalPos="max">
        <route edges="edge-north-NS edge-south-NS"/>
    </vehicle>
    <vehicle id="default-flow-route-edge-south-SN_0_base-edge-east-WE_0_max-8376576316283808492--8611841271810001168--110-0.0" type="actor-default--7972158289131019312" depart="297.00" departLane="0" departPos="base" departSpeed="max" arrivalLane="0" arrivalPos="max">
        <route edges="edge-south-SN edge-east-WE"/>
    </vehicle>
    <vehicle id="default-flow-route-edge-north-NS_0_base-edge-west-EW_0_max--9201690798924167721--8611841271810001168--2307-0.0" type="actor-default--7972158289131019312" depart="298.00" departLane="0" departPos="base" departSpeed="max" arrivalLane="0" arrivalPos="max">
        <route edges="edge-north-NS edge-west-EW"/>
    </vehicle>
    <vehicle id="default-flow-route-edge-south-SN_0_base-edge-west-EW_0_max--6409505801511773193--8611841271810001168--18-0.0" type="actor-default--7972158289131019312" depart="306.00" departLane="0" departPos="base" departSpeed="max" arrivalLane="0" arrivalPos="max">
        <route edges="edge-south-SN edge-west-EW"/>
    </vehicle>
    <vehicle id="default-flow-route-edge-north-NS_0_base-edge-east-WE_0_max-7619780531447017676--8611841271810001168--2211-0.0" type="actor-default--7972158289131019312" depart="313.00" departLane="0" departPos="base" departSpeed="max" arrivalLane="0" arrivalPos="max">
        <route edges="edge-north-NS edge-east-WE"/>
    </vehicle>
    <vehicle id="default-flow-route-edge-south-SN_0_base-edge-west-EW_0_max--6409505801511773193--8611841271810001168--19-0.0" type="actor-default--7972158289131019312" depart="313.00" departLane="0" departPos="base" departSpeed="max" arrivalLane="0" arrivalPos="max">
        <route edges="edge-south-SN edge-west-EW"/>
    </vehicle>
    <vehicle id="default-flow-route-edge-north-NS_0_base-edge-west-EW_0_max--9201690798924167721--8611841271810001168--2308-0.0" type="actor-default--7972158289131019312" depart="316.00" departLane="0" departPos="base" departSpeed="max" arrivalLane="0" arrivalPos="max">
        <route edges="edge-north-NS edge-west-EW"/>
    </vehicle>
    <vehicle id="default-flow-route-edge-south-SN_0_base-edge-north-SN_0_max--3330647475869855925--8611841271810001168--214-0.0" type="actor-default--7972158289131019312" depart="325.00" departLane="0" departPos="base" departSpeed="max" arrivalLane="0" arrivalPos="max">
        <route edges="edge-south-SN edge-north-SN"/>
    </vehicle>
    <vehicle id="default-flow-route-edge-north-NS_0_base-edge-west-EW_0_max--9201690798924167721--8611841271810001168--2309-0.0" type="actor-default--7972158289131019312" depart="328.00" departLane="0" departPos="base" departSpeed="max" arrivalLane="0" arrivalPos="max">
        <route edges="edge-north-NS edge-west-EW"/>
    </vehicle>
    <vehicle id="blocker-flow-route-edge-south-SN_0_base-edge-west-EW_0_max--6409505801511773193---3208195399076283168--20-0.0" type="actor-blocker-132896880522379009" depart="342.00" departLane="0" departPos="base" departSpeed="max" arrivalLane="0" arrivalPos="max">
        <route edges="edge-south-SN edge-west-EW"/>
    </vehicle>
    <vehicle id="default-flow-route-edge-north-NS_0_base-edge-south-NS_0_max-6354198324389824595--8611841271810001168--1211-0.0" type="actor-default--7972158289131019312" depart="343.00" departLane="0" departPos="base" departSpeed="max" arrivalLane="0" arrivalPos="max">
        <route edges="edge-north-NS edge-south-NS"/>
    </vehicle>
    <vehicle id="default-flow-route-edge-south-SN_0_base-edge-west-EW_0_max--6409505801511773193--8611841271810001168--21-0.0" type="actor-default--7972158289131019312" depart="344.00" departLane="0" departPos="base" departSpeed="max" arrivalLane="0" arrivalPos="max">
        <route edges="edge-south-SN edge-west-EW"/>
    </vehicle>