<?xml version="1.0" encoding="UTF-8"?>

<!-- generated on 2021-05-21 00:45:34 by Eclipse SUMO duarouter Version 1.9.2
<configuration xmlns:xsi="http://www.w3.org/2001/XMLSchema-instance" xsi:noNamespaceSchemaLocation="http://sumo.dlr.de/xsd/duarouterConfiguration.xsd">

    <input>
        <net-file value="scenarios/intersections/4lane/shifted_map-AUTOGEN.net.xml"/>
        <route-files value="/tmp/tmpd0wqn8ic/trips.trips.xml"/>
    </input>

    <output>
        <output-file value="scenarios/intersections/4lane/traffic/basic.rou.xml"/>
        <alternatives-output value="scenarios/intersections/4lane/traffic/basic.rou.alt.xml"/>
    </output>

    <processing>
        <unsorted-input value="true"/>
        <repair value="true"/>
    </processing>

    <report>
        <error-log value="/home/dikshant/.smarts/_duarouter_routing/traffic/basic.log"/>
        <no-step-log value="true"/>
    </report>

    <random_number>
        <seed value="42"/>
    </random_number>

</configuration>
-->

<routes xmlns:xsi="http://www.w3.org/2001/XMLSchema-instance" xsi:noNamespaceSchemaLocation="http://sumo.dlr.de/xsd/routes_file.xsd">
    <vType id="actor-car-5865662682053655513" minGap="2.50" maxSpeed="55.50" speedFactor="normc(1.00,0.10,0.20,2.00)" vClass="passenger" accel="2.6" decel="4.5" sigma="0.5"/>
    <vehicle id="car-flow-random-route-e3232b54-3556940013187772310--0-0.0" type="actor-car-5865662682053655513" depart="0.00" departLane="0" departPos="37.62" departSpeed="max" arrivalLane="0" arrivalPos="32.83">
        <route edges="edge-north-NS edge-east-WE"/>
    </vehicle>
    <vehicle id="car-flow-random-route-e3232b54-3556940013187772310--0-0.1" type="actor-car-5865662682053655513" depart="1.00" departLane="0" departPos="37.62" departSpeed="max" arrivalLane="0" arrivalPos="32.83">
        <route edges="edge-north-NS edge-east-WE"/>
    </vehicle>
    <vehicle id="car-flow-random-route-e3232b54-3556940013187772310--0-0.2" type="actor-car-5865662682053655513" depart="2.00" departLane="0" departPos="37.62" departSpeed="max" arrivalLane="0" arrivalPos="32.83">
        <route edges="edge-north-NS edge-east-WE"/>
    </vehicle>
    <vehicle id="car-flow-random-route-e3232b54-3556940013187772310--0-0.3" type="actor-car-5865662682053655513" depart="3.00" departLane="0" departPos="37.62" departSpeed="max" arrivalLane="0" arrivalPos="32.83">
        <route edges="edge-north-NS edge-east-WE"/>
    </vehicle>
    <vehicle id="car-flow-random-route-e3232b54-3556940013187772310--0-0.4" type="actor-car-5865662682053655513" depart="4.00" departLane="0" departPos="37.62" departSpeed="max" arrivalLane="0" arrivalPos="32.83">
        <route edges="edge-north-NS edge-east-WE"/>
    </vehicle>
    <vehicle id="car-flow-random-route-e3232b54-3556940013187772310--0-0.5" type="actor-car-5865662682053655513" depart="5.00" departLane="0" departPos="37.62" departSpeed="max" arrivalLane="0" arrivalPos="32.83">
        <route edges="edge-north-NS edge-east-WE"/>
    </vehicle>
    <vehicle id="car-flow-random-route-e3232b54-3556940013187772310--0-0.6" type="actor-car-5865662682053655513" depart="6.00" departLane="0" departPos="37.62" departSpeed="max" arrivalLane="0" arrivalPos="32.83">
        <route edges="edge-north-NS edge-east-WE"/>
    </vehicle>
    <vehicle id="car-flow-random-route-e3232b54-3556940013187772310--0-0.7" type="actor-car-5865662682053655513" depart="7.00" departLane="0" departPos="37.62" departSpeed="max" arrivalLane="0" arrivalPos="32.83">
        <route edges="edge-north-NS edge-east-WE"/>
    </vehicle>
    <vehicle id="car-flow-random-route-e3232b54-3556940013187772310--0-0.8" type="actor-car-5865662682053655513" depart="8.00" departLane="0" departPos="37.62" departSpeed="max" arrivalLane="0" arrivalPos="32.83">
        <route edges="edge-north-NS edge-east-WE"/>
    </vehicle>
    <vehicle id="car-flow-random-route-e3232b54-3556940013187772310--0-0.9" type="actor-car-5865662682053655513" depart="9.00" departLane="0" departPos="37.62" departSpeed="max" arrivalLane="0" arrivalPos="32.83">
        <route edges="edge-north-NS edge-east-WE"/>
    </vehicle>
    <vehicle id="car-flow-random-route-e3232b54-3556940013187772310--0-0.10" type="actor-car-5865662682053655513" depart="10.00" departLane="0" departPos="37.62" departSpeed="max" arrivalLane="0" arrivalPos="32.83">
        <route edges="edge-north-NS edge-east-WE"/>
    </vehicle>
    <vehicle id="car-flow-random-route-e3232b54-3556940013187772310--0-0.11" type="actor-car-5865662682053655513" depart="11.00" departLane="0" departPos="37.62" departSpeed="max" arrivalLane="0" arrivalPos="32.83">
        <route edges="edge-north-NS edge-east-WE"/>
    </vehicle>
    <vehicle id="car-flow-random-route-e3232b54-3556940013187772310--0-0.12" type="actor-car-5865662682053655513" depart="12.00" departLane="0" departPos="37.62" departSpeed="max" arrivalLane="0" arrivalPos="32.83">
        <route edges="edge-north-NS edge-east-WE"/>
    </vehicle>
    <vehicle id="car-flow-random-route-e3232b54-3556940013187772310--0-0.13" type="actor-car-5865662682053655513" depart="13.00" departLane="0" departPos="37.62" departSpeed="max" arrivalLane="0" arrivalPos="32.83">
        <route edges="edge-north-NS edge-east-WE"/>
    </vehicle>
    <vehicle id="car-flow-random-route-e3232b54-3556940013187772310--0-0.14" type="actor-car-5865662682053655513" depart="14.00" departLane="0" departPos="37.62" departSpeed="max" arrivalLane="0" arrivalPos="32.83">
        <route edges="edge-north-NS edge-east-WE"/>
    </vehicle>
    <vehicle id="car-flow-random-route-e3232b54-3556940013187772310--0-0.15" type="actor-car-5865662682053655513" depart="15.00" departLane="0" departPos="37.62" departSpeed="max" arrivalLane="0" arrivalPos="32.83">
        <route edges="edge-north-NS edge-east-WE"/>
    </vehicle>
    <vehicle id="car-flow-random-route-e3232b54-3556940013187772310--0-0.16" type="actor-car-5865662682053655513" depart="16.00" departLane="0" departPos="37.62" departSpeed="max" arrivalLane="0" arrivalPos="32.83">
        <route edges="edge-north-NS edge-east-WE"/>
    </vehicle>
    <vehicle id="car-flow-random-route-e3232b54-3556940013187772310--0-0.17" type="actor-car-5865662682053655513" depart="17.00" departLane="0" departPos="37.62" departSpeed="max" arrivalLane="0" arrivalPos="32.83">
        <route edges="edge-north-NS edge-east-WE"/>
    </vehicle>
    <vehicle id="car-flow-random-route-e3232b54-3556940013187772310--0-0.18" type="actor-car-5865662682053655513" depart="18.00" departLane="0" departPos="37.62" departSpeed="max" arrivalLane="0" arrivalPos="32.83">
        <route edges="edge-north-NS edge-east-WE"/>
    </vehicle>
    <vehicle id="car-flow-random-route-e3232b54-3556940013187772310--0-0.19" type="actor-car-5865662682053655513" depart="19.00" departLane="0" departPos="37.62" departSpeed="max" arrivalLane="0" arrivalPos="32.83">
        <route edges="edge-north-NS edge-east-WE"/>
    </vehicle>
    <vehicle id="car-flow-random-route-e3232b54-3556940013187772310--0-0.20" type="actor-car-5865662682053655513" depart="20.00" departLane="0" departPos="37.62" departSpeed="max" arrivalLane="0" arrivalPos="32.83">
        <route edges="edge-north-NS edge-east-WE"/>
    </vehicle>
    <vehicle id="car-flow-random-route-e3232b54-3556940013187772310--0-0.21" type="actor-car-5865662682053655513" depart="21.00" departLane="0" departPos="37.62" departSpeed="max" arrivalLane="0" arrivalPos="32.83">
        <route edges="edge-north-NS edge-east-WE"/>
    </vehicle>
    <vehicle id="car-flow-random-route-e3232b54-3556940013187772310--0-0.22" type="actor-car-5865662682053655513" depart="22.00" departLane="0" departPos="37.62" departSpeed="max" arrivalLane="0" arrivalPos="32.83">
        <route edges="edge-north-NS edge-east-WE"/>
    </vehicle>
    <vehicle id="car-flow-random-route-e3232b54-3556940013187772310--0-0.23" type="actor-car-5865662682053655513" depart="23.00" departLane="0" departPos="37.62" departSpeed="max" arrivalLane="0" arrivalPos="32.83">
        <route edges="edge-north-NS edge-east-WE"/>
    </vehicle>
    <vehicle id="car-flow-random-route-e3232b54-3556940013187772310--0-0.24" type="actor-car-5865662682053655513" depart="24.00" departLane="0" departPos="37.62" departSpeed="max" arrivalLane="0" arrivalPos="32.83">
        <route edges="edge-north-NS edge-east-WE"/>
    </vehicle>
    <vehicle id="car-flow-random-route-e3232b54-3556940013187772310--0-0.25" type="actor-car-5865662682053655513" depart="25.00" departLane="0" departPos="37.62" departSpeed="max" arrivalLane="0" arrivalPos="32.83">
        <route edges="edge-north-NS edge-east-WE"/>
    </vehicle>
    <vehicle id="car-flow-random-route-e3232b54-3556940013187772310--0-0.26" type="actor-car-5865662682053655513" depart="26.00" departLane="0" departPos="37.62" departSpeed="max" arrivalLane="0" arrivalPos="32.83">
        <route edges="edge-north-NS edge-east-WE"/>
    </vehicle>
    <vehicle id="car-flow-random-route-e3232b54-3556940013187772310--0-0.27" type="actor-car-5865662682053655513" depart="27.00" departLane="0" departPos="37.62" departSpeed="max" arrivalLane="0" arrivalPos="32.83">
        <route edges="edge-north-NS edge-east-WE"/>
    </vehicle>
    <vehicle id="car-flow-random-route-e3232b54-3556940013187772310--0-0.28" type="actor-car-5865662682053655513" depart="28.00" departLane="0" departPos="37.62" departSpeed="max" arrivalLane="0" arrivalPos="32.83">
        <route edges="edge-north-NS edge-east-WE"/>
    </vehicle>
    <vehicle id="car-flow-random-route-e3232b54-3556940013187772310--0-0.29" type="actor-car-5865662682053655513" depart="29.00" departLane="0" departPos="37.62" departSpeed="max" arrivalLane="0" arrivalPos="32.83">
        <route edges="edge-north-NS edge-east-WE"/>
    </vehicle>
    <vehicle id="car-flow-random-route-e3232b54-3556940013187772310--0-0.30" type="actor-car-5865662682053655513" depart="30.00" departLane="0" departPos="37.62" departSpeed="max" arrivalLane="0" arrivalPos="32.83">
        <route edges="edge-north-NS edge-east-WE"/>
    </vehicle>
    <vehicle id="car-flow-random-route-e3232b54-3556940013187772310--0-0.31" type="actor-car-5865662682053655513" depart="31.00" departLane="0" departPos="37.62" departSpeed="max" arrivalLane="0" arrivalPos="32.83">
        <route edges="edge-north-NS edge-east-WE"/>
    </vehicle>
    <vehicle id="car-flow-random-route-e3232b54-3556940013187772310--0-0.32" type="actor-car-5865662682053655513" depart="32.00" departLane="0" departPos="37.62" departSpeed="max" arrivalLane="0" arrivalPos="32.83">
        <route edges="edge-north-NS edge-east-WE"/>
    </vehicle>
    <vehicle id="car-flow-random-route-e3232b54-3556940013187772310--0-0.33" type="actor-car-5865662682053655513" depart="33.00" departLane="0" departPos="37.62" departSpeed="max" arrivalLane="0" arrivalPos="32.83">
        <route edges="edge-north-NS edge-east-WE"/>
    </vehicle>
    <vehicle id="car-flow-random-route-e3232b54-3556940013187772310--0-0.34" type="actor-car-5865662682053655513" depart="34.00" departLane="0" departPos="37.62" departSpeed="max" arrivalLane="0" arrivalPos="32.83">
        <route edges="edge-north-NS edge-east-WE"/>
    </vehicle>
    <vehicle id="car-flow-random-route-e3232b54-3556940013187772310--0-0.35" type="actor-car-5865662682053655513" depart="35.00" departLane="0" departPos="37.62" departSpeed="max" arrivalLane="0" arrivalPos="32.83">
        <route edges="edge-north-NS edge-east-WE"/>
    </vehicle>
    <vehicle id="car-flow-random-route-e3232b54-3556940013187772310--0-0.36" type="actor-car-5865662682053655513" depart="36.00" departLane="0" departPos="37.62" departSpeed="max" arrivalLane="0" arrivalPos="32.83">
        <route edges="edge-north-NS edge-east-WE"/>
    </vehicle>
    <vehicle id="car-flow-random-route-e3232b54-3556940013187772310--0-0.37" type="actor-car-5865662682053655513" depart="37.00" departLane="0" departPos="37.62" departSpeed="max" arrivalLane="0" arrivalPos="32.83">
        <route edges="edge-north-NS edge-east-WE"/>
    </vehicle>
    <vehicle id="car-flow-random-route-e3232b54-3556940013187772310--0-0.38" type="actor-car-5865662682053655513" depart="38.00" departLane="0" departPos="37.62" departSpeed="max" arrivalLane="0" arrivalPos="32.83">
        <route edges="edge-north-NS edge-east-WE"/>
    </vehicle>
    <vehicle id="car-flow-random-route-e3232b54-3556940013187772310--0-0.39" type="actor-car-5865662682053655513" depart="39.00" departLane="0" departPos="37.62" departSpeed="max" arrivalLane="0" arrivalPos="32.83">
        <route edges="edge-north-NS edge-east-WE"/>
    </vehicle>
    <vehicle id="car-flow-random-route-e3232b54-3556940013187772310--0-0.40" type="actor-car-5865662682053655513" depart="40.00" departLane="0" departPos="37.62" departSpeed="max" arrivalLane="0" arrivalPos="32.83">
        <route edges="edge-north-NS edge-east-WE"/>
    </vehicle>
    <vehicle id="car-flow-random-route-e3232b54-3556940013187772310--0-0.41" type="actor-car-5865662682053655513" depart="41.00" departLane="0" departPos="37.62" departSpeed="max" arrivalLane="0" arrivalPos="32.83">
        <route edges="edge-north-NS edge-east-WE"/>
    </vehicle>
    <vehicle id="car-flow-random-route-e3232b54-3556940013187772310--0-0.42" type="actor-car-5865662682053655513" depart="42.00" departLane="0" departPos="37.62" departSpeed="max" arrivalLane="0" arrivalPos="32.83">
        <route edges="edge-north-NS edge-east-WE"/>
    </vehicle>
    <vehicle id="car-flow-random-route-e3232b54-3556940013187772310--0-0.43" type="actor-car-5865662682053655513" depart="43.00" departLane="0" departPos="37.62" departSpeed="max" arrivalLane="0" arrivalPos="32.83">
        <route edges="edge-north-NS edge-east-WE"/>
    </vehicle>
    <vehicle id="car-flow-random-route-e3232b54-3556940013187772310--0-0.44" type="actor-car-5865662682053655513" depart="44.00" departLane="0" departPos="37.62" departSpeed="max" arrivalLane="0" arrivalPos="32.83">
        <route edges="edge-north-NS edge-east-WE"/>
    </vehicle>
    <vehicle id="car-flow-random-route-e3232b54-3556940013187772310--0-0.45" type="actor-car-5865662682053655513" depart="45.00" departLane="0" departPos="37.62" departSpeed="max" arrivalLane="0" arrivalPos="32.83">
        <route edges="edge-north-NS edge-east-WE"/>
    </vehicle>
    <vehicle id="car-flow-random-route-e3232b54-3556940013187772310--0-0.46" type="actor-car-5865662682053655513" depart="46.00" departLane="0" departPos="37.62" departSpeed="max" arrivalLane="0" arrivalPos="32.83">
        <route edges="edge-north-NS edge-east-WE"/>
    </vehicle>
    <vehicle id="car-flow-random-route-e3232b54-3556940013187772310--0-0.47" type="actor-car-5865662682053655513" depart="47.00" departLane="0" departPos="37.62" departSpeed="max" arrivalLane="0" arrivalPos="32.83">
        <route edges="edge-north-NS edge-east-WE"/>
    </vehicle>
    <vehicle id="car-flow-random-route-e3232b54-3556940013187772310--0-0.48" type="actor-car-5865662682053655513" depart="48.00" departLane="0" departPos="37.62" departSpeed="max" arrivalLane="0" arrivalPos="32.83">
        <route edges="edge-north-NS edge-east-WE"/>
    </vehicle>
    <vehicle id="car-flow-random-route-e3232b54-3556940013187772310--0-0.49" type="actor-car-5865662682053655513" depart="49.00" departLane="0" departPos="37.62" departSpeed="max" arrivalLane="0" arrivalPos="32.83">
        <route edges="edge-north-NS edge-east-WE"/>
    </vehicle>
    <vehicle id="car-flow-random-route-e3232b54-3556940013187772310--0-0.50" type="actor-car-5865662682053655513" depart="50.00" departLane="0" departPos="37.62" departSpeed="max" arrivalLane="0" arrivalPos="32.83">
        <route edges="edge-north-NS edge-east-WE"/>
    </vehicle>
    <vehicle id="car-flow-random-route-e3232b54-3556940013187772310--0-0.51" type="actor-car-5865662682053655513" depart="51.00" departLane="0" departPos="37.62" departSpeed="max" arrivalLane="0" arrivalPos="32.83">
        <route edges="edge-north-NS edge-east-WE"/>
    </vehicle>
    <vehicle id="car-flow-random-route-e3232b54-3556940013187772310--0-0.52" type="actor-car-5865662682053655513" depart="52.00" departLane="0" departPos="37.62" departSpeed="max" arrivalLane="0" arrivalPos="32.83">
        <route edges="edge-north-NS edge-east-WE"/>
    </vehicle>
    <vehicle id="car-flow-random-route-e3232b54-3556940013187772310--0-0.53" type="actor-car-5865662682053655513" depart="53.00" departLane="0" departPos="37.62" departSpeed="max" arrivalLane="0" arrivalPos="32.83">
        <route edges="edge-north-NS edge-east-WE"/>
    </vehicle>
    <vehicle id="car-flow-random-route-e3232b54-3556940013187772310--0-0.54" type="actor-car-5865662682053655513" depart="54.00" departLane="0" departPos="37.62" departSpeed="max" arrivalLane="0" arrivalPos="32.83">
        <route edges="edge-north-NS edge-east-WE"/>
    </vehicle>
    <vehicle id="car-flow-random-route-e3232b54-3556940013187772310--0-0.55" type="actor-car-5865662682053655513" depart="55.00" departLane="0" departPos="37.62" departSpeed="max" arrivalLane="0" arrivalPos="32.83">
        <route edges="edge-north-NS edge-east-WE"/>
    </vehicle>
    <vehicle id="car-flow-random-route-e3232b54-3556940013187772310--0-0.56" type="actor-car-5865662682053655513" depart="56.00" departLane="0" departPos="37.62" departSpeed="max" arrivalLane="0" arrivalPos="32.83">
        <route edges="edge-north-NS edge-east-WE"/>
    </vehicle>
    <vehicle id="car-flow-random-route-e3232b54-3556940013187772310--0-0.57" type="actor-car-5865662682053655513" depart="57.00" departLane="0" departPos="37.62" departSpeed="max" arrivalLane="0" arrivalPos="32.83">
        <route edges="edge-north-NS edge-east-WE"/>
    </vehicle>
    <vehicle id="car-flow-random-route-e3232b54-3556940013187772310--0-0.58" type="actor-car-5865662682053655513" depart="58.00" departLane="0" departPos="37.62" departSpeed="max" arrivalLane="0" arrivalPos="32.83">
        <route edges="edge-north-NS edge-east-WE"/>
    </vehicle>
    <vehicle id="car-flow-random-route-e3232b54-3556940013187772310--0-0.59" type="actor-car-5865662682053655513" depart="59.00" departLane="0" departPos="37.62" departSpeed="max" arrivalLane="0" arrivalPos="32.83">
        <route edges="edge-north-NS edge-east-WE"/>
    </vehicle>
    <vehicle id="car-flow-random-route-e3232b54-3556940013187772310--0-0.60" type="actor-car-5865662682053655513" depart="60.00" departLane="0" departPos="37.62" departSpeed="max" arrivalLane="0" arrivalPos="32.83">
        <route edges="edge-north-NS edge-east-WE"/>
    </vehicle>
    <vehicle id="car-flow-random-route-e3232b54-3556940013187772310--0-0.61" type="actor-car-5865662682053655513" depart="61.00" departLane="0" departPos="37.62" departSpeed="max" arrivalLane="0" arrivalPos="32.83">
        <route edges="edge-north-NS edge-east-WE"/>
    </vehicle>
    <vehicle id="car-flow-random-route-e3232b54-3556940013187772310--0-0.62" type="actor-car-5865662682053655513" depart="62.00" departLane="0" departPos="37.62" departSpeed="max" arrivalLane="0" arrivalPos="32.83">
        <route edges="edge-north-NS edge-east-WE"/>
    </vehicle>
    <vehicle id="car-flow-random-route-e3232b54-3556940013187772310--0-0.63" type="actor-car-5865662682053655513" depart="63.00" departLane="0" departPos="37.62" departSpeed="max" arrivalLane="0" arrivalPos="32.83">
        <route edges="edge-north-NS edge-east-WE"/>
    </vehicle>
    <vehicle id="car-flow-random-route-e3232b54-3556940013187772310--0-0.64" type="actor-car-5865662682053655513" depart="64.00" departLane="0" departPos="37.62" departSpeed="max" arrivalLane="0" arrivalPos="32.83">
        <route edges="edge-north-NS edge-east-WE"/>
    </vehicle>
    <vehicle id="car-flow-random-route-e3232b54-3556940013187772310--0-0.65" type="actor-car-5865662682053655513" depart="65.00" departLane="0" departPos="37.62" departSpeed="max" arrivalLane="0" arrivalPos="32.83">
        <route edges="edge-north-NS edge-east-WE"/>
    </vehicle>
    <vehicle id="car-flow-random-route-e3232b54-3556940013187772310--0-0.66" type="actor-car-5865662682053655513" depart="66.00" departLane="0" departPos="37.62" departSpeed="max" arrivalLane="0" arrivalPos="32.83">
        <route edges="edge-north-NS edge-east-WE"/>
    </vehicle>
    <vehicle id="car-flow-random-route-e3232b54-3556940013187772310--0-0.67" type="actor-car-5865662682053655513" depart="67.00" departLane="0" departPos="37.62" departSpeed="max" arrivalLane="0" arrivalPos="32.83">
        <route edges="edge-north-NS edge-east-WE"/>
    </vehicle>
    <vehicle id="car-flow-random-route-e3232b54-3556940013187772310--0-0.68" type="actor-car-5865662682053655513" depart="68.00" departLane="0" departPos="37.62" departSpeed="max" arrivalLane="0" arrivalPos="32.83">
        <route edges="edge-north-NS edge-east-WE"/>
    </vehicle>
    <vehicle id="car-flow-random-route-e3232b54-3556940013187772310--0-0.69" type="actor-car-5865662682053655513" depart="69.00" departLane="0" departPos="37.62" departSpeed="max" arrivalLane="0" arrivalPos="32.83">
        <route edges="edge-north-NS edge-east-WE"/>
    </vehicle>
    <vehicle id="car-flow-random-route-e3232b54-3556940013187772310--0-0.70" type="actor-car-5865662682053655513" depart="70.00" departLane="0" departPos="37.62" departSpeed="max" arrivalLane="0" arrivalPos="32.83">
        <route edges="edge-north-NS edge-east-WE"/>
    </vehicle>
    <vehicle id="car-flow-random-route-e3232b54-3556940013187772310--0-0.71" type="actor-car-5865662682053655513" depart="71.00" departLane="0" departPos="37.62" departSpeed="max" arrivalLane="0" arrivalPos="32.83">
        <route edges="edge-north-NS edge-east-WE"/>
    </vehicle>
    <vehicle id="car-flow-random-route-e3232b54-3556940013187772310--0-0.72" type="actor-car-5865662682053655513" depart="72.00" departLane="0" departPos="37.62" departSpeed="max" arrivalLane="0" arrivalPos="32.83">
        <route edges="edge-north-NS edge-east-WE"/>
    </vehicle>
    <vehicle id="car-flow-random-route-e3232b54-3556940013187772310--0-0.73" type="actor-car-5865662682053655513" depart="73.00" departLane="0" departPos="37.62" departSpeed="max" arrivalLane="0" arrivalPos="32.83">
        <route edges="edge-north-NS edge-east-WE"/>
    </vehicle>
    <vehicle id="car-flow-random-route-e3232b54-3556940013187772310--0-0.74" type="actor-car-5865662682053655513" depart="74.00" departLane="0" departPos="37.62" departSpeed="max" arrivalLane="0" arrivalPos="32.83">
        <route edges="edge-north-NS edge-east-WE"/>
    </vehicle>
    <vehicle id="car-flow-random-route-e3232b54-3556940013187772310--0-0.75" type="actor-car-5865662682053655513" depart="75.00" departLane="0" departPos="37.62" departSpeed="max" arrivalLane="0" arrivalPos="32.83">
        <route edges="edge-north-NS edge-east-WE"/>
    </vehicle>
    <vehicle id="car-flow-random-route-e3232b54-3556940013187772310--0-0.76" type="actor-car-5865662682053655513" depart="76.00" departLane="0" departPos="37.62" departSpeed="max" arrivalLane="0" arrivalPos="32.83">
        <route edges="edge-north-NS edge-east-WE"/>
    </vehicle>
    <vehicle id="car-flow-random-route-e3232b54-3556940013187772310--0-0.77" type="actor-car-5865662682053655513" depart="77.00" departLane="0" departPos="37.62" departSpeed="max" arrivalLane="0" arrivalPos="32.83">
        <route edges="edge-north-NS edge-east-WE"/>
    </vehicle>
    <vehicle id="car-flow-random-route-e3232b54-3556940013187772310--0-0.78" type="actor-car-5865662682053655513" depart="78.00" departLane="0" departPos="37.62" departSpeed="max" arrivalLane="0" arrivalPos="32.83">
        <route edges="edge-north-NS edge-east-WE"/>
    </vehicle>
    <vehicle id="car-flow-random-route-e3232b54-3556940013187772310--0-0.79" type="actor-car-5865662682053655513" depart="79.00" departLane="0" departPos="37.62" departSpeed="max" arrivalLane="0" arrivalPos="32.83">
        <route edges="edge-north-NS edge-east-WE"/>
    </vehicle>
    <vehicle id="car-flow-random-route-e3232b54-3556940013187772310--0-0.80" type="actor-car-5865662682053655513" depart="80.00" departLane="0" departPos="37.62" departSpeed="max" arrivalLane="0" arrivalPos="32.83">
        <route edges="edge-north-NS edge-east-WE"/>
    </vehicle>
    <vehicle id="car-flow-random-route-e3232b54-3556940013187772310--0-0.81" type="actor-car-5865662682053655513" depart="81.00" departLane="0" departPos="37.62" departSpeed="max" arrivalLane="0" arrivalPos="32.83">
        <route edges="edge-north-NS edge-east-WE"/>
    </vehicle>
    <vehicle id="car-flow-random-route-e3232b54-3556940013187772310--0-0.82" type="actor-car-5865662682053655513" depart="82.00" departLane="0" departPos="37.62" departSpeed="max" arrivalLane="0" arrivalPos="32.83">
        <route edges="edge-north-NS edge-east-WE"/>
    </vehicle>
    <vehicle id="car-flow-random-route-e3232b54-3556940013187772310--0-0.83" type="actor-car-5865662682053655513" depart="83.00" departLane="0" departPos="37.62" departSpeed="max" arrivalLane="0" arrivalPos="32.83">
        <route edges="edge-north-NS edge-east-WE"/>
    </vehicle>
    <vehicle id="car-flow-random-route-e3232b54-3556940013187772310--0-0.84" type="actor-car-5865662682053655513" depart="84.00" departLane="0" departPos="37.62" departSpeed="max" arrivalLane="0" arrivalPos="32.83">
        <route edges="edge-north-NS edge-east-WE"/>
    </vehicle>
    <vehicle id="car-flow-random-route-e3232b54-3556940013187772310--0-0.85" type="actor-car-5865662682053655513" depart="85.00" departLane="0" departPos="37.62" departSpeed="max" arrivalLane="0" arrivalPos="32.83">
        <route edges="edge-north-NS edge-east-WE"/>
    </vehicle>
    <vehicle id="car-flow-random-route-e3232b54-3556940013187772310--0-0.86" type="actor-car-5865662682053655513" depart="86.00" departLane="0" departPos="37.62" departSpeed="max" arrivalLane="0" arrivalPos="32.83">
        <route edges="edge-north-NS edge-east-WE"/>
    </vehicle>
    <vehicle id="car-flow-random-route-e3232b54-3556940013187772310--0-0.87" type="actor-car-5865662682053655513" depart="87.00" departLane="0" departPos="37.62" departSpeed="max" arrivalLane="0" arrivalPos="32.83">
        <route edges="edge-north-NS edge-east-WE"/>
    </vehicle>
    <vehicle id="car-flow-random-route-e3232b54-3556940013187772310--0-0.88" type="actor-car-5865662682053655513" depart="88.00" departLane="0" departPos="37.62" departSpeed="max" arrivalLane="0" arrivalPos="32.83">
        <route edges="edge-north-NS edge-east-WE"/>
    </vehicle>
    <vehicle id="car-flow-random-route-e3232b54-3556940013187772310--0-0.89" type="actor-car-5865662682053655513" depart="89.00" departLane="0" departPos="37.62" departSpeed="max" arrivalLane="0" arrivalPos="32.83">
        <route edges="edge-north-NS edge-east-WE"/>
    </vehicle>
    <vehicle id="car-flow-random-route-e3232b54-3556940013187772310--0-0.90" type="actor-car-5865662682053655513" depart="90.00" departLane="0" departPos="37.62" departSpeed="max" arrivalLane="0" arrivalPos="32.83">
        <route edges="edge-north-NS edge-east-WE"/>
    </vehicle>
    <vehicle id="car-flow-random-route-e3232b54-3556940013187772310--0-0.91" type="actor-car-5865662682053655513" depart="91.00" departLane="0" departPos="37.62" departSpeed="max" arrivalLane="0" arrivalPos="32.83">
        <route edges="edge-north-NS edge-east-WE"/>
    </vehicle>
    <vehicle id="car-flow-random-route-e3232b54-3556940013187772310--0-0.92" type="actor-car-5865662682053655513" depart="92.00" departLane="0" departPos="37.62" departSpeed="max" arrivalLane="0" arrivalPos="32.83">
        <route edges="edge-north-NS edge-east-WE"/>
    </vehicle>
    <vehicle id="car-flow-random-route-e3232b54-3556940013187772310--0-0.93" type="actor-car-5865662682053655513" depart="93.00" departLane="0" departPos="37.62" departSpeed="max" arrivalLane="0" arrivalPos="32.83">
        <route edges="edge-north-NS edge-east-WE"/>
    </vehicle>
    <vehicle id="car-flow-random-route-e3232b54-3556940013187772310--0-0.94" type="actor-car-5865662682053655513" depart="94.00" departLane="0" departPos="37.62" departSpeed="max" arrivalLane="0" arrivalPos="32.83">
        <route edges="edge-north-NS edge-east-WE"/>
    </vehicle>
    <vehicle id="car-flow-random-route-e3232b54-3556940013187772310--0-0.95" type="actor-car-5865662682053655513" depart="95.00" departLane="0" departPos="37.62" departSpeed="max" arrivalLane="0" arrivalPos="32.83">
        <route edges="edge-north-NS edge-east-WE"/>
    </vehicle>
    <vehicle id="car-flow-random-route-e3232b54-3556940013187772310--0-0.96" type="actor-car-5865662682053655513" depart="96.00" departLane="0" departPos="37.62" departSpeed="max" arrivalLane="0" arrivalPos="32.83">
        <route edges="edge-north-NS edge-east-WE"/>
    </vehicle>
    <vehicle id="car-flow-random-route-e3232b54-3556940013187772310--0-0.97" type="actor-car-5865662682053655513" depart="97.00" departLane="0" departPos="37.62" departSpeed="max" arrivalLane="0" arrivalPos="32.83">
        <route edges="edge-north-NS edge-east-WE"/>
    </vehicle>
    <vehicle id="car-flow-random-route-e3232b54-3556940013187772310--0-0.98" type="actor-car-5865662682053655513" depart="98.00" departLane="0" departPos="37.62" departSpeed="max" arrivalLane="0" arrivalPos="32.83">
        <route edges="edge-north-NS edge-east-WE"/>
    </vehicle>
    <vehicle id="car-flow-random-route-e3232b54-3556940013187772310--0-0.99" type="actor-car-5865662682053655513" depart="99.00" departLane="0" departPos="37.62" departSpeed="max" arrivalLane="0" arrivalPos="32.83">
        <route edges="edge-north-NS edge-east-WE"/>
    </vehicle>
    <vehicle id="car-flow-random-route-e3232b54-3556940013187772310--0-0.100" type="actor-car-5865662682053655513" depart="100.00" departLane="0" departPos="37.62" departSpeed="max" arrivalLane="0" arrivalPos="32.83">
        <route edges="edge-north-NS edge-east-WE"/>
    </vehicle>