<?xml version="1.0" encoding="UTF-8"?>

<!-- generated on 2021-07-01 19:00:07 by Eclipse SUMO duarouter Version 1.9.2
<configuration xmlns:xsi="http://www.w3.org/2001/XMLSchema-instance" xsi:noNamespaceSchemaLocation="http://sumo.dlr.de/xsd/duarouterConfiguration.xsd">

    <input>
        <net-file value="/home/dikshant/github/SMARTS-lite/ultra/ultra/scenarios/task0-3agents/train_easy_2lane_c_50kmh_low-density-flow-1/map.net.xml"/>
        <route-files value="/tmp/tmpqc0639b1/trips.trips.xml"/>
    </input>

    <output>
        <output-file value="/home/dikshant/github/SMARTS-lite/ultra/ultra/scenarios/task0-3agents/train_easy_2lane_c_50kmh_low-density-flow-1/traffic/all.rou.xml"/>
        <alternatives-output value="/home/dikshant/github/SMARTS-lite/ultra/ultra/scenarios/task0-3agents/train_easy_2lane_c_50kmh_low-density-flow-1/traffic/all.rou.alt.xml"/>
    </output>

    <processing>
        <unsorted-input value="true"/>
        <repair value="true"/>
    </processing>

    <report>
        <error-log value="/home/dikshant/.smarts/_duarouter_routing/traffic/all.log"/>
        <no-step-log value="true"/>
    </report>

    <random_number>
        <seed value="3"/>
    </random_number>

</configuration>
-->

<routes xmlns:xsi="http://www.w3.org/2001/XMLSchema-instance" xsi:noNamespaceSchemaLocation="http://sumo.dlr.de/xsd/routes_file.xsd">
    <vType id="actor-default--196820779050912576" minGap="2.56" maxSpeed="55.50" speedFactor="normc(1.00,0.05,0.20,2.00)" vClass="passenger" accel="3.0" decel="7.5" sigma="0.5047354019143652"/>
    <vehicle id="default-flow-route-edge-south-SN_0_base-edge-west-EW_0_max--504679750499135540---7882454410930167382--0-0.0" type="actor-default--196820779050912576" depart="3.00" departLane="0" departPos="base" departSpeed="max" arrivalLane="0" arrivalPos="max">
        <route edges="edge-south-SN edge-west-EW"/>
    </vehicle>
    <vehicle id="default-flow-route-edge-north-NS_0_base-edge-south-NS_0_max--6868635560114145257---7882454410930167382--1200-0.0" type="actor-default--196820779050912576" depart="33.00" departLane="0" departPos="base" departSpeed="max" arrivalLane="0" arrivalPos="max">
        <route edges="edge-north-NS edge-south-NS"/>
    </vehicle>
    <vType id="actor-blocker--7124752634790997043" minGap="1.02" maxSpeed="55.50" speedFactor="normc(0.20,0.10,0.20,2.00)" vClass="passenger" impatience="0.00" lcStrategic="0" lcCooperative="0.0" lcSpeedGain="1" lcKeepRight="0.0" lcOpposite="0" lcPushy="0" lcImpatience="0.0" lcTimeToImpatience="1000" lcOvertakeRight="0" jmIgnoreFoeProb="0.0" jmTimegapMinor="1.0" accel="3.0" decel="7.5" sigma="0.18997252784647572"/>
    <vehicle id="blocker-flow-route-edge-south-SN_0_base-edge-west-EW_0_max--504679750499135540---8745285980059863670--1-0.0" type="actor-blocker--7124752634790997043" depart="39.00" departLane="0" departPos="base" departSpeed="max" arrivalLane="0" arrivalPos="max">
        <route edges="edge-south-SN edge-west-EW"/>
    </vehicle>
    <vType id="actor-cautious-5693923704919840333" minGap="4.99" maxSpeed="55.50" speedFactor="normc(0.40,0.10,0.20,2.00)" vClass="passenger" impatience="0.00" lcStrategic="1" lcSpeedGain="1" lcKeepRight="1" lcPushy="0.2" lcImpatience="0" lcLookaheadLeft="2.9" lcOvertakeRight="0" jmIgnoreFoeProb="0.0" jmTimegapMinor="1.0" accel="3.0" decel="10.0" sigma="0.4870422731153283"/>
    <vehicle id="cautious-flow-route-edge-south-SN_0_base-edge-west-EW_0_max--504679750499135540---4423629500830365925--2-0.0" type="actor-cautious-5693923704919840333" depart="51.00" departLane="0" departPos="base" departSpeed="max" arrivalLane="0" arrivalPos="max">
        <route edges="edge-south-SN edge-west-EW"/>
    </vehicle>
    <vehicle id="default-flow-route-edge-south-SN_0_base-edge-north-SN_0_max--9131797877731621189---7882454410930167382--200-0.0" type="actor-default--196820779050912576" depart="53.00" departLane="0" departPos="base" departSpeed="max" arrivalLane="0" arrivalPos="max">
        <route edges="edge-south-SN edge-north-SN"/>
    </vehicle>
    <vehicle id="default-flow-route-edge-north-NS_0_base-edge-east-WE_0_max--4442811648223683442---7882454410930167382--2300-0.0" type="actor-default--196820779050912576" depart="54.00" departLane="0" departPos="base" departSpeed="max" arrivalLane="0" arrivalPos="max">
        <route edges="edge-north-NS edge-east-WE"/>
    </vehicle>
    <vehicle id="default-flow-route-edge-north-NS_0_base-edge-west-EW_0_max--631579588469043518---7882454410930167382--2200-0.0" type="actor-default--196820779050912576" depart="55.00" departLane="0" departPos="base" departSpeed="max" arrivalLane="0" arrivalPos="max">
        <route edges="edge-north-NS edge-west-EW"/>
    </vehicle>
    <vehicle id="default-flow-route-edge-south-SN_0_base-edge-east-WE_0_max-5102818903898816536---7882454410930167382--100-0.0" type="actor-default--196820779050912576" depart="61.00" departLane="0" departPos="base" departSpeed="max" arrivalLane="0" arrivalPos="max">
        <route edges="edge-south-SN edge-east-WE"/>
    </vehicle>
    <vehicle id="default-flow-route-edge-north-NS_0_base-edge-west-EW_0_max--631579588469043518---7882454410930167382--2201-0.0" type="actor-default--196820779050912576" depart="67.00" departLane="0" departPos="base" departSpeed="max" arrivalLane="0" arrivalPos="max">
        <route edges="edge-north-NS edge-west-EW"/>
    </vehicle>
    <vehicle id="default-flow-route-edge-south-SN_0_base-edge-north-SN_0_max--9131797877731621189---7882454410930167382--201-0.0" type="actor-default--196820779050912576" depart="70.00" departLane="0" departPos="base" departSpeed="max" arrivalLane="0" arrivalPos="max">
        <route edges="edge-south-SN edge-north-SN"/>
    </vehicle>
    <vType id="actor-aggressive-3074207939546150483" minGap="1.10" maxSpeed="55.50" speedFactor="normc(1.50,0.10,0.20,2.00)" vClass="passenger" impatience="0.98" lcStrategic="10" lcSpeedGain="200" lcPushy="1.0" lcImpatience="1.0" lcTimeToImpatience="0.01" lcLookaheadLeft="0.0" lcOvertakeRight="1" jmIgnoreFoeProb="0.98" jmTimegapMinor="0.1" accel="10.0" decel="10.0" sigma="0.006862163227929291"/>
    <vehicle id="aggressive-flow-route-edge-south-SN_0_base-edge-east-WE_0_max-5102818903898816536--7791898959049168472--101-0.0" type="actor-aggressive-3074207939546150483" depart="89.00" departLane="0" departPos="base" departSpeed="max" arrivalLane="0" arrivalPos="max">
        <route edges="edge-south-SN edge-east-WE"/>
    </vehicle>
    <vehicle id="default-flow-route-edge-south-SN_0_base-edge-west-EW_0_max--504679750499135540---7882454410930167382--3-0.0" type="actor-default--196820779050912576" depart="99.00" departLane="0" departPos="base" departSpeed="max" arrivalLane="0" arrivalPos="max">
        <route edges="edge-south-SN edge-west-EW"/>
    </vehicle>
    <vehicle id="default-flow-route-edge-south-SN_0_base-edge-west-EW_0_max--504679750499135540---7882454410930167382--4-0.0" type="actor-default--196820779050912576" depart="107.00" departLane="0" departPos="base" departSpeed="max" arrivalLane="0" arrivalPos="max">
        <route edges="edge-south-SN edge-west-EW"/>
    </vehicle>
    <vehicle id="default-flow-route-edge-south-SN_0_base-edge-west-EW_0_max--504679750499135540---7882454410930167382--5-0.0" type="actor-default--196820779050912576" depart="121.00" departLane="0" departPos="base" departSpeed="max" arrivalLane="0" arrivalPos="max">
        <route edges="edge-south-SN edge-west-EW"/>
    </vehicle>
    <vehicle id="aggressive-flow-route-edge-north-NS_0_base-edge-east-WE_0_max--4442811648223683442--7791898959049168472--2301-0.0" type="actor-aggressive-3074207939546150483" depart="127.00" departLane="0" departPos="base" departSpeed="max" arrivalLane="0" arrivalPos="max">
        <route edges="edge-north-NS edge-east-WE"/>
    </vehicle>
    <vehicle id="cautious-flow-route-edge-south-SN_0_base-edge-north-SN_0_max--9131797877731621189---4423629500830365925--202-0.0" type="actor-cautious-5693923704919840333" depart="127.00" departLane="0" departPos="base" departSpeed="max" arrivalLane="0" arrivalPos="max">
        <route edges="edge-south-SN edge-north-SN"/>
    </vehicle>
    <vehicle id="default-flow-route-edge-north-NS_0_base-edge-south-NS_0_max--6868635560114145257---7882454410930167382--1201-0.0" type="actor-default--196820779050912576" depart="127.00" departLane="0" departPos="base" departSpeed="max" arrivalLane="0" arrivalPos="max">
        <route edges="edge-north-NS edge-south-NS"/>
    </vehicle>
    <vehicle id="default-flow-route-edge-south-SN_0_base-edge-west-EW_0_max--504679750499135540---7882454410930167382--6-0.0" type="actor-default--196820779050912576" depart="134.00" departLane="0" departPos="base" departSpeed="max" arrivalLane="0" arrivalPos="max">
        <route edges="edge-south-SN edge-west-EW"/>
    </vehicle>
    <vehicle id="default-flow-route-edge-north-NS_0_base-edge-east-WE_0_max--4442811648223683442---7882454410930167382--2302-0.0" type="actor-default--196820779050912576" depart="139.00" departLane="0" departPos="base" departSpeed="max" arrivalLane="0" arrivalPos="max">
        <route edges="edge-north-NS edge-east-WE"/>
    </vehicle>
    <vehicle id="default-flow-route-edge-south-SN_0_base-edge-west-EW_0_max--504679750499135540---7882454410930167382--7-0.0" type="actor-default--196820779050912576" depart="150.00" departLane="0" departPos="base" departSpeed="max" arrivalLane="0" arrivalPos="max">
        <route edges="edge-south-SN edge-west-EW"/>
    </vehicle>
    <vehicle id="default-flow-route-edge-north-NS_0_base-edge-east-WE_0_max--4442811648223683442---7882454410930167382--2303-0.0" type="actor-default--196820779050912576" depart="153.00" departLane="0" departPos="base" departSpeed="max" arrivalLane="0" arrivalPos="max">
        <route edges="edge-north-NS edge-east-WE"/>
    </vehicle>
    <vehicle id="default-flow-route-edge-north-NS_0_base-edge-east-WE_0_max--4442811648223683442---7882454410930167382--2304-0.0" type="actor-default--196820779050912576" depart="154.00" departLane="0" departPos="base" departSpeed="max" arrivalLane="0" arrivalPos="max">
        <route edges="edge-north-NS edge-east-WE"/>
    </vehicle>
    <vehicle id="default-flow-route-edge-south-SN_0_base-edge-west-EW_0_max--504679750499135540---7882454410930167382--8-0.0" type="actor-default--196820779050912576" depart="166.00" departLane="0" departPos="base" departSpeed="max" arrivalLane="0" arrivalPos="max">
        <route edges="edge-south-SN edge-west-EW"/>
    </vehicle>
    <vehicle id="default-flow-route-edge-north-NS_0_base-edge-west-EW_0_max--631579588469043518---7882454410930167382--2202-0.0" type="actor-default--196820779050912576" depart="173.00" departLane="0" departPos="base" departSpeed="max" arrivalLane="0" arrivalPos="max">
        <route edges="edge-north-NS edge-west-EW"/>
    </vehicle>
    <vehicle id="default-flow-route-edge-south-SN_0_base-edge-east-WE_0_max-5102818903898816536---7882454410930167382--102-0.0" type="actor-default--196820779050912576" depart="173.00" departLane="0" departPos="base" departSpeed="max" arrivalLane="0" arrivalPos="max">
        <route edges="edge-south-SN edge-east-WE"/>
    </vehicle>
    <vehicle id="default-flow-route-edge-south-SN_0_base-edge-north-SN_0_max--9131797877731621189---7882454410930167382--203-0.0" type="actor-default--196820779050912576" depart="181.00" departLane="0" departPos="base" departSpeed="max" arrivalLane="0" arrivalPos="max">
        <route edges="edge-south-SN edge-north-SN"/>
    </vehicle>
    <vehicle id="default-flow-route-edge-north-NS_0_base-edge-east-WE_0_max--4442811648223683442---7882454410930167382--2305-0.0" type="actor-default--196820779050912576" depart="183.00" departLane="0" departPos="base" departSpeed="max" arrivalLane="0" arrivalPos="max">
        <route edges="edge-north-NS edge-east-WE"/>
    </vehicle>
    <vehicle id="default-flow-route-edge-north-NS_0_base-edge-south-NS_0_max--6868635560114145257---7882454410930167382--1202-0.0" type="actor-default--196820779050912576" depart="189.00" departLane="0" departPos="base" departSpeed="max" arrivalLane="0" arrivalPos="max">
        <route edges="edge-north-NS edge-south-NS"/>
    </vehicle>
    <vehicle id="default-flow-route-edge-south-SN_0_base-edge-west-EW_0_max--504679750499135540---7882454410930167382--9-0.0" type="actor-default--196820779050912576" depart="197.00" departLane="0" departPos="base" departSpeed="max" arrivalLane="0" arrivalPos="max">
        <route edges="edge-south-SN edge-west-EW"/>
    </vehicle>
    <vehicle id="default-flow-route-edge-south-SN_0_base-edge-east-WE_0_max-5102818903898816536---7882454410930167382--103-0.0" type="actor-default--196820779050912576" depart="214.00" departLane="0" departPos="base" departSpeed="max" arrivalLane="0" arrivalPos="max">
        <route edges="edge-south-SN edge-east-WE"/>
    </vehicle>
    <vehicle id="default-flow-route-edge-north-NS_0_base-edge-east-WE_0_max--4442811648223683442---7882454410930167382--2306-0.0" type="actor-default--196820779050912576" depart="215.00" departLane="0" departPos="base" departSpeed="max" arrivalLane="0" arrivalPos="max">
        <route edges="edge-north-NS edge-east-WE"/>
    </vehicle>
    <vehicle id="cautious-flow-route-edge-south-SN_0_base-edge-west-EW_0_max--504679750499135540---4423629500830365925--10-0.0" type="actor-cautious-5693923704919840333" depart="220.00" departLane="0" departPos="base" departSpeed="max" arrivalLane="0" arrivalPos="max">
        <route edges="edge-south-SN edge-west-EW"/>
    </vehicle>
    <vehicle id="default-flow-route-edge-north-NS_0_base-edge-south-NS_0_max--6868635560114145257---7882454410930167382--1203-0.0" type="actor-default--196820779050912576" depart="229.00" departLane="0" departPos="base" departSpeed="max" arrivalLane="0" arrivalPos="max">
        <route edges="edge-north-NS edge-south-NS"/>
    </vehicle>
    <vehicle id="default-flow-route-edge-south-SN_0_base-edge-north-SN_0_max--9131797877731621189---7882454410930167382--204-0.0" type="actor-default--196820779050912576" depart="229.00" departLane="0" departPos="base" departSpeed="max" arrivalLane="0" arrivalPos="max">
        <route edges="edge-south-SN edge-north-SN"/>
    </vehicle>
    <vehicle id="blocker-flow-route-edge-south-SN_0_base-edge-west-EW_0_max--504679750499135540---8745285980059863670--11-0.0" type="actor-blocker--7124752634790997043" depart="237.00" departLane="0" departPos="base" departSpeed="max" arrivalLane="0" arrivalPos="max">
        <route edges="edge-south-SN edge-west-EW"/>
    </vehicle>
    <vehicle id="aggressive-flow-route-edge-south-SN_0_base-edge-west-EW_0_max--504679750499135540--7791898959049168472--12-0.0" type="actor-aggressive-3074207939546150483" depart="251.00" departLane="0" departPos="base" departSpeed="max" arrivalLane="0" arrivalPos="max">
        <route edges="edge-south-SN edge-west-EW"/>
    </vehicle>
    <vehicle id="default-flow-route-edge-north-NS_0_base-edge-south-NS_0_max--6868635560114145257---7882454410930167382--1204-0.0" type="actor-default--196820779050912576" depart="260.00" departLane="0" departPos="base" departSpeed="max" arrivalLane="0" arrivalPos="max">
        <route edges="edge-north-NS edge-south-NS"/>
    </vehicle>
    <vehicle id="default-flow-route-edge-north-NS_0_base-edge-south-NS_0_max--6868635560114145257---7882454410930167382--1205-0.0" type="actor-default--196820779050912576" depart="272.00" departLane="0" departPos="base" departSpeed="max" arrivalLane="0" arrivalPos="max">
        <route edges="edge-north-NS edge-south-NS"/>
    </vehicle>
    <vehicle id="default-flow-route-edge-north-NS_0_base-edge-west-EW_0_max--631579588469043518---7882454410930167382--2203-0.0" type="actor-default--196820779050912576" depart="272.00" departLane="0" departPos="base" departSpeed="max" arrivalLane="0" arrivalPos="max">
        <route edges="edge-north-NS edge-west-EW"/>
    </vehicle>
    <vehicle id="default-flow-route-edge-south-SN_0_base-edge-north-SN_0_max--9131797877731621189---7882454410930167382--205-0.0" type="actor-default--196820779050912576" depart="273.00" departLane="0" departPos="base" departSpeed="max" arrivalLane="0" arrivalPos="max">
        <route edges="edge-south-SN edge-north-SN"/>
    </vehicle>
    <vehicle id="default-flow-route-edge-north-NS_0_base-edge-east-WE_0_max--4442811648223683442---7882454410930167382--2307-0.0" type="actor-default--196820779050912576" depart="285.00" departLane="0" departPos="base" departSpeed="max" arrivalLane="0" arrivalPos="max">
        <route edges="edge-north-NS edge-east-WE"/>
    </vehicle>
    <vehicle id="default-flow-route-edge-south-SN_0_base-edge-east-WE_0_max-5102818903898816536---7882454410930167382--104-0.0" type="actor-default--196820779050912576" depart="291.00" departLane="0" departPos="base" departSpeed="max" arrivalLane="0" arrivalPos="max">
        <route edges="edge-south-SN edge-east-WE"/>
    </vehicle>
    <vehicle id="default-flow-route-edge-south-SN_0_base-edge-north-SN_0_max--9131797877731621189---7882454410930167382--206-0.0" type="actor-default--196820779050912576" depart="329.00" departLane="0" departPos="base" departSpeed="max" arrivalLane="0" arrivalPos="max">
        <route edges="edge-south-SN edge-north-SN"/>
    </vehicle>
    <vehicle id="blocker-flow-route-edge-south-SN_0_base-edge-north-SN_0_max--9131797877731621189---8745285980059863670--207-0.0" type="actor-blocker--7124752634790997043" depart="347.00" departLane="0" departPos="base" departSpeed="max" arrivalLane="0" arrivalPos="max">
        <route edges="edge-south-SN edge-north-SN"/>
    </vehicle>
    <vehicle id="default-flow-route-edge-south-SN_0_base-edge-north-SN_0_max--9131797877731621189---7882454410930167382--208-0.0" type="actor-default--196820779050912576" depart="357.00" departLane="0" departPos="base" departSpeed="max" arrivalLane="0" arrivalPos="max">
        <route edges="edge-south-SN edge-north-SN"/>
    </vehicle>
    <vehicle id="blocker-flow-route-edge-south-SN_0_base-edge-north-SN_0_max--9131797877731621189---8745285980059863670--209-0.0" type="actor-blocker--7124752634790997043" depart="366.00" departLane="0" departPos="base" departSpeed="max" arrivalLane="0" arrivalPos="max">
        <route edges="edge-south-SN edge-north-SN"/>
    </vehicle>
    <vehicle id="default-flow-route-edge-north-NS_0_base-edge-east-WE_0_max--4442811648223683442---7882454410930167382--2308-0.0" type="actor-default--196820779050912576" depart="377.00" departLane="0" departPos="base" departSpeed="max" arrivalLane="0" arrivalPos="max">
        <route edges="edge-north-NS edge-east-WE"/>
    </vehicle>
    <vehicle id="default-flow-route-edge-south-SN_0_base-edge-north-SN_0_max--9131797877731621189---7882454410930167382--210-0.0" type="actor-default--196820779050912576" depart="377.00" departLane="0" departPos="base" departSpeed="max" arrivalLane="0" arrivalPos="max">
        <route edges="edge-south-SN edge-north-SN"/>
    </vehicle>
    <vehicle id="cautious-flow-route-edge-south-SN_0_base-edge-east-WE_0_max-5102818903898816536---4423629500830365925--105-0.0" type="actor-cautious-5693923704919840333" depart="380.00" departLane="0" departPos="base" departSpeed="max" arrivalLane="0" arrivalPos="max">
        <route edges="edge-south-SN edge-east-WE"/>
    </vehicle>
    <vehicle id="default-flow-route-edge-north-NS_0_base-edge-east-WE_0_max--4442811648223683442---7882454410930167382--2309-0.0" type="actor-default--196820779050912576" depart="384.00" departLane="0" departPos="base" departSpeed="max" arrivalLane="0" arrivalPos="max">
        <route edges="edge-north-NS edge-east-WE"/>
    </vehicle>
    <vehicle id="default-flow-route-edge-north-NS_0_base-edge-east-WE_0_max--4442811648223683442---7882454410930167382--2310-0.0" type="actor-default--196820779050912576" depart="415.00" departLane="0" departPos="base" departSpeed="max" arrivalLane="0" arrivalPos="max">
        <route edges="edge-north-NS edge-east-WE"/>
    </vehicle>
    <vehicle id="default-flow-route-edge-north-NS_0_base-edge-west-EW_0_max--631579588469043518---7882454410930167382--2204-0.0" type="actor-default--196820779050912576" depart="421.00" departLane="0" departPos="base" departSpeed="max" arrivalLane="0" arrivalPos="max">
        <route edges="edge-north-NS edge-west-EW"/>
    </vehicle>
    <vehicle id="default-flow-route-edge-south-SN_0_base-edge-west-EW_0_max--504679750499135540---7882454410930167382--13-0.0" type="actor-default--196820779050912576" depart="423.00" departLane="0" departPos="base" departSpeed="max" arrivalLane="0" arrivalPos="max">
        <route edges="edge-south-SN edge-west-EW"/>
    </vehicle>
    <vehicle id="default-flow-route-edge-north-NS_0_base-edge-south-NS_0_max--6868635560114145257---7882454410930167382--1206-0.0" type="actor-default--196820779050912576" depart="428.00" departLane="0" departPos="base" departSpeed="max" arrivalLane="0" arrivalPos="max">
        <route edges="edge-north-NS edge-south-NS"/>
    </vehicle>
    <vehicle id="default-flow-route-edge-south-SN_0_base-edge-west-EW_0_max--504679750499135540---7882454410930167382--14-0.0" type="actor-default--196820779050912576" depart="442.00" departLane="0" departPos="base" departSpeed="max" arrivalLane="0" arrivalPos="max">
        <route edges="edge-south-SN edge-west-EW"/>
    </vehicle>
    <vehicle id="default-flow-route-edge-south-SN_0_base-edge-west-EW_0_max--504679750499135540---7882454410930167382--15-0.0" type="actor-default--196820779050912576" depart="444.00" departLane="0" departPos="base" departSpeed="max" arrivalLane="0" arrivalPos="max">
        <route edges="edge-south-SN edge-west-EW"/>
    </vehicle>
    <vehicle id="default-flow-route-edge-south-SN_0_base-edge-east-WE_0_max-5102818903898816536---7882454410930167382--106-0.0" type="actor-default--196820779050912576" depart="475.00" departLane="0" departPos="base" departSpeed="max" arrivalLane="0" arrivalPos="max">
        <route edges="edge-south-SN edge-east-WE"/>
    </vehicle>
    <vehicle id="aggressive-flow-route-edge-north-NS_0_base-edge-east-WE_0_max--4442811648223683442--7791898959049168472--2311-0.0" type="actor-aggressive-3074207939546150483" depart="480.00" departLane="0" departPos="base" departSpeed="max" arrivalLane="0" arrivalPos="max">
        <route edges="edge-north-NS edge-east-WE"/>
    </vehicle>
    <vehicle id="blocker-flow-route-edge-south-SN_0_base-edge-west-EW_0_max--504679750499135540---8745285980059863670--16-0.0" type="actor-blocker--7124752634790997043" depart="488.00" departLane="0" departPos="base" departSpeed="max" arrivalLane="0" arrivalPos="max">
        <route edges="edge-south-SN edge-west-EW"/>
    </vehicle>
    <vehicle id="default-flow-route-edge-north-NS_0_base-edge-west-EW_0_max--631579588469043518---7882454410930167382--2205-0.0" type="actor-default--196820779050912576" depart="488.00" departLane="0" departPos="base" departSpeed="max" arrivalLane="0" arrivalPos="max">
        <route edges="edge-north-NS edge-west-EW"/>
    </vehicle>
    <vehicle id="default-flow-route-edge-south-SN_0_base-edge-north-SN_0_max--9131797877731621189---7882454410930167382--211-0.0" type="actor-default--196820779050912576" depart="492.00" departLane="0" departPos="base" departSpeed="max" arrivalLane="0" arrivalPos="max">
        <route edges="edge-south-SN edge-north-SN"/>
    </vehicle>
    <vehicle id="default-flow-route-edge-north-NS_0_base-edge-west-EW_0_max--631579588469043518---7882454410930167382--2206-0.0" type="actor-default--196820779050912576" depart="494.00" departLane="0" departPos="base" departSpeed="max" arrivalLane="0" arrivalPos="max">
        <route edges="edge-north-NS edge-west-EW"/>
    </vehicle>
    <vehicle id="blocker-flow-route-edge-north-NS_0_base-edge-east-WE_0_max--4442811648223683442---8745285980059863670--2312-0.0" type="actor-blocker--7124752634790997043" depart="495.00" departLane="0" departPos="base" departSpeed="max" arrivalLane="0" arrivalPos="max">
        <route edges="edge-north-NS edge-east-WE"/>
    </vehicle>
    <vehicle id="default-flow-route-edge-north-NS_0_base-edge-east-WE_0_max--4442811648223683442---7882454410930167382--2313-0.0" type="actor-default--196820779050912576" depart="498.00" departLane="0" departPos="base" departSpeed="max" arrivalLane="0" arrivalPos="max">
        <route edges="edge-north-NS edge-east-WE"/>
    </vehicle>
    <vehicle id="default-flow-route-edge-south-SN_0_base-edge-east-WE_0_max-5102818903898816536---7882454410930167382--107-0.0" type="actor-default--196820779050912576" depart="508.00" departLane="0" departPos="base" departSpeed="max" arrivalLane="0" arrivalPos="max">
        <route edges="edge-south-SN edge-east-WE"/>
    </vehicle>
    <vehicle id="default-flow-route-edge-north-NS_0_base-edge-west-EW_0_max--631579588469043518---7882454410930167382--2207-0.0" type="actor-default--196820779050912576" depart="519.00" departLane="0" departPos="base" departSpeed="max" arrivalLane="0" arrivalPos="max">
        <route edges="edge-north-NS edge-west-EW"/>
    </vehicle>
    <vehicle id="default-flow-route-edge-south-SN_0_base-edge-east-WE_0_max-5102818903898816536---7882454410930167382--108-0.0" type="actor-default--196820779050912576" depart="532.00" departLane="0" departPos="base" departSpeed="max" arrivalLane="0" arrivalPos="max">
        <route edges="edge-south-SN edge-east-WE"/>
    </vehicle>
    <vehicle id="default-flow-route-edge-north-NS_0_base-edge-west-EW_0_max--631579588469043518---7882454410930167382--2208-0.0" type="actor-default--196820779050912576" depart="534.00" departLane="0" departPos="base" departSpeed="max" arrivalLane="0" arrivalPos="max">
        <route edges="edge-north-NS edge-west-EW"/>
    </vehicle>
    <vehicle id="default-flow-route-edge-north-NS_0_base-edge-south-NS_0_max--6868635560114145257---7882454410930167382--1207-0.0" type="actor-default--196820779050912576" depart="535.00" departLane="0" departPos="base" departSpeed="max" arrivalLane="0" arrivalPos="max">
        <route edges="edge-north-NS edge-south-NS"/>
    </vehicle>
    <vehicle id="default-flow-route-edge-north-NS_0_base-edge-east-WE_0_max--4442811648223683442---7882454410930167382--2314-0.0" type="actor-default--196820779050912576" depart="537.00" departLane="0" departPos="base" departSpeed="max" arrivalLane="0" arrivalPos="max">
        <route edges="edge-north-NS edge-east-WE"/>
    </vehicle>
    <vehicle id="default-flow-route-edge-south-SN_0_base-edge-west-EW_0_max--504679750499135540---7882454410930167382--17-0.0" type="actor-default--196820779050912576" depart="539.00" departLane="0" departPos="base" departSpeed="max" arrivalLane="0" arrivalPos="max">
        <route edges="edge-south-SN edge-west-EW"/>
    </vehicle>
    <vehicle id="default-flow-route-edge-north-NS_0_base-edge-west-EW_0_max--631579588469043518---7882454410930167382--2209-0.0" type="actor-default--196820779050912576" depart="541.00" departLane="0" departPos="base" departSpeed="max" arrivalLane="0" arrivalPos="max">
        <route edges="edge-north-NS edge-west-EW"/>
    </vehicle>
    <vehicle id="default-flow-route-edge-north-NS_0_base-edge-south-NS_0_max--6868635560114145257---7882454410930167382--1208-0.0" type="actor-default--196820779050912576" depart="546.00" departLane="0" departPos="base" departSpeed="max" arrivalLane="0" arrivalPos="max">
        <route edges="edge-north-NS edge-south-NS"/>
    </vehicle>
    <vehicle id="default-flow-route-edge-south-SN_0_base-edge-west-EW_0_max--504679750499135540---7882454410930167382--18-0.0" type="actor-default--196820779050912576" depart="546.00" departLane="0" departPos="base" departSpeed="max" arrivalLane="0" arrivalPos="max">
        <route edges="edge-south-SN edge-west-EW"/>
    </vehicle>
    <vehicle id="default-flow-route-edge-north-NS_0_base-edge-south-NS_0_max--6868635560114145257---7882454410930167382--1209-0.0" type="actor-default--196820779050912576" depart="562.00" departLane="0" departPos="base" departSpeed="max" arrivalLane="0" arrivalPos="max">
        <route edges="edge-north-NS edge-south-NS"/>
    </vehicle>
    <vehicle id="aggressive-flow-route-edge-south-SN_0_base-edge-west-EW_0_max--504679750499135540--7791898959049168472--19-0.0" type="actor-aggressive-3074207939546150483" depart="564.00" departLane="0" departPos="base" departSpeed="max" arrivalLane="0" arrivalPos="max">
        <route edges="edge-south-SN edge-west-EW"/>
    </vehicle>
    <vehicle id="default-flow-route-edge-south-SN_0_base-edge-west-EW_0_max--504679750499135540---7882454410930167382--20-0.0" type="actor-default--196820779050912576" depart="570.00" departLane="0" departPos="base" departSpeed="max" arrivalLane="0" arrivalPos="max">
        <route edges="edge-south-SN edge-west-EW"/>
    </vehicle>
    <vehicle id="default-flow-route-edge-south-SN_0_base-edge-east-WE_0_max-5102818903898816536---7882454410930167382--109-0.0" type="actor-default--196820779050912576" depart="574.00" departLane="0" departPos="base" departSpeed="max" arrivalLane="0" arrivalPos="max">
        <route edges="edge-south-SN edge-east-WE"/>
    </vehicle>
    <vehicle id="default-flow-route-edge-north-NS_0_base-edge-east-WE_0_max--4442811648223683442---7882454410930167382--2315-0.0" type="actor-default--196820779050912576" depart="580.00" departLane="0" departPos="base" departSpeed="max" arrivalLane="0" arrivalPos="max">
        <route edges="edge-north-NS edge-east-WE"/>
    </vehicle>
    <vehicle id="default-flow-route-edge-south-SN_0_base-edge-east-WE_0_max-5102818903898816536---7882454410930167382--110-0.0" type="actor-default--196820779050912576" depart="584.00" departLane="0" departPos="base" departSpeed="max" arrivalLane="0" arrivalPos="max">
        <route edges="edge-south-SN edge-east-WE"/>
    </vehicle>