<?xml version="1.0" encoding="UTF-8"?>

<!-- generated on 2021-05-21 00:45:33 by Eclipse SUMO duarouter Version 1.9.2
<configuration xmlns:xsi="http://www.w3.org/2001/XMLSchema-instance" xsi:noNamespaceSchemaLocation="http://sumo.dlr.de/xsd/duarouterConfiguration.xsd">

    <input>
        <net-file value="scenarios/behavior_models/uturn/1lane/shifted_map-AUTOGEN.net.xml"/>
        <route-files value="/tmp/tmprwsji342/trips.trips.xml"/>
    </input>

    <output>
        <output-file value="scenarios/behavior_models/uturn/1lane/traffic/basic.rou.xml"/>
        <alternatives-output value="scenarios/behavior_models/uturn/1lane/traffic/basic.rou.alt.xml"/>
    </output>

    <processing>
        <unsorted-input value="true"/>
        <repair value="true"/>
    </processing>

    <report>
        <error-log value="/home/dikshant/.smarts/_duarouter_routing/traffic/basic.log"/>
        <no-step-log value="true"/>
    </report>

    <random_number>
        <seed value="42"/>
    </random_number>

</configuration>
-->

<routes xmlns:xsi="http://www.w3.org/2001/XMLSchema-instance" xsi:noNamespaceSchemaLocation="http://sumo.dlr.de/xsd/routes_file.xsd">
    <vType id="actor-car-887826018055720456" minGap="2.50" maxSpeed="55.50" speedFactor="normc(1.00,0.10,0.20,2.00)" vClass="passenger" accel="2.6" decel="4.5" sigma="0.5"/>
    <vehicle id="car-flow-route-edge-west-EW_0_20-edge-west-EW_1_max-9172484694397096262--6479937482870755856--0-0.0" type="actor-car-887826018055720456" depart="0.00" departLane="0" departPos="20.00" departSpeed="max" arrivalLane="1" arrivalPos="max">
        <route edges="edge-west-EW"/>
    </vehicle>
    <vehicle id="car-flow-route-edge-west-EW_0_20-edge-west-EW_1_max-9172484694397096262--6479937482870755856--0-0.1" type="actor-car-887826018055720456" depart="9.00" departLane="0" departPos="20.00" departSpeed="max" arrivalLane="1" arrivalPos="max">
        <route edges="edge-west-EW"/>
    </vehicle>
    <vehicle id="car-flow-route-edge-west-EW_0_20-edge-west-EW_1_max-9172484694397096262--6479937482870755856--0-0.2" type="actor-car-887826018055720456" depart="18.00" departLane="0" departPos="20.00" departSpeed="max" arrivalLane="1" arrivalPos="max">
        <route edges="edge-west-EW"/>
    </vehicle>
    <vehicle id="car-flow-route-edge-west-EW_0_20-edge-west-EW_1_max-9172484694397096262--6479937482870755856--0-0.3" type="actor-car-887826018055720456" depart="27.00" departLane="0" departPos="20.00" departSpeed="max" arrivalLane="1" arrivalPos="max">
        <route edges="edge-west-EW"/>
    </vehicle>
    <vehicle id="car-flow-route-edge-west-EW_0_20-edge-west-EW_1_max-9172484694397096262--6479937482870755856--0-0.4" type="actor-car-887826018055720456" depart="36.00" departLane="0" departPos="20.00" departSpeed="max" arrivalLane="1" arrivalPos="max">
        <route edges="edge-west-EW"/>
    </vehicle>
    <vehicle id="car-flow-route-edge-west-EW_0_20-edge-west-EW_1_max-9172484694397096262--6479937482870755856--0-0.5" type="actor-car-887826018055720456" depart="45.00" departLane="0" departPos="20.00" departSpeed="max" arrivalLane="1" arrivalPos="max">
        <route edges="edge-west-EW"/>
    </vehicle>
    <vehicle id="car-flow-route-edge-west-EW_0_20-edge-west-EW_1_max-9172484694397096262--6479937482870755856--0-0.6" type="actor-car-887826018055720456" depart="54.00" departLane="0" departPos="20.00" departSpeed="max" arrivalLane="1" arrivalPos="max">
        <route edges="edge-west-EW"/>
    </vehicle>
    <vehicle id="car-flow-route-edge-west-EW_0_20-edge-west-EW_1_max-9172484694397096262--6479937482870755856--0-0.7" type="actor-car-887826018055720456" depart="63.00" departLane="0" departPos="20.00" departSpeed="max" arrivalLane="1" arrivalPos="max">
        <route edges="edge-west-EW"/>
    </vehicle>
    <vehicle id="car-flow-route-edge-west-EW_0_20-edge-west-EW_1_max-9172484694397096262--6479937482870755856--0-0.8" type="actor-car-887826018055720456" depart="72.00" departLane="0" departPos="20.00" departSpeed="max" arrivalLane="1" arrivalPos="max">
        <route edges="edge-west-EW"/>
    </vehicle>
    <vehicle id="car-flow-route-edge-west-EW_0_20-edge-west-EW_1_max-9172484694397096262--6479937482870755856--0-0.9" type="actor-car-887826018055720456" depart="81.00" departLane="0" departPos="20.00" departSpeed="max" arrivalLane="1" arrivalPos="max">
        <route edges="edge-west-EW"/>
    </vehicle>
    <vehicle id="car-flow-route-edge-west-EW_0_20-edge-west-EW_1_max-9172484694397096262--6479937482870755856--0-0.10" type="actor-car-887826018055720456" depart="90.00" departLane="0" departPos="20.00" departSpeed="max" arrivalLane="1" arrivalPos="max">
        <route edges="edge-west-EW"/>
    </vehicle>
    <vehicle id="car-flow-route-edge-west-EW_0_20-edge-west-EW_1_max-9172484694397096262--6479937482870755856--0-0.11" type="actor-car-887826018055720456" depart="99.00" departLane="0" departPos="20.00" departSpeed="max" arrivalLane="1" arrivalPos="max">
        <route edges="edge-west-EW"/>
    </vehicle>
    <vehicle id="car-flow-route-edge-west-EW_0_20-edge-west-EW_1_max-9172484694397096262--6479937482870755856--0-0.12" type="actor-car-887826018055720456" depart="108.00" departLane="0" departPos="20.00" departSpeed="max" arrivalLane="1" arrivalPos="max">
        <route edges="edge-west-EW"/>
    </vehicle>
    <vehicle id="car-flow-route-edge-west-EW_0_20-edge-west-EW_1_max-9172484694397096262--6479937482870755856--0-0.13" type="actor-car-887826018055720456" depart="117.00" departLane="0" departPos="20.00" departSpeed="max" arrivalLane="1" arrivalPos="max">
        <route edges="edge-west-EW"/>
    </vehicle>
    <vehicle id="car-flow-route-edge-west-EW_0_20-edge-west-EW_1_max-9172484694397096262--6479937482870755856--0-0.14" type="actor-car-887826018055720456" depart="126.00" departLane="0" departPos="20.00" departSpeed="max" arrivalLane="1" arrivalPos="max">
        <route edges="edge-west-EW"/>
    </vehicle>
    <vehicle id="car-flow-route-edge-west-EW_0_20-edge-west-EW_1_max-9172484694397096262--6479937482870755856--0-0.15" type="actor-car-887826018055720456" depart="135.00" departLane="0" departPos="20.00" departSpeed="max" arrivalLane="1" arrivalPos="max">
        <route edges="edge-west-EW"/>
    </vehicle>
    <vehicle id="car-flow-route-edge-west-EW_0_20-edge-west-EW_1_max-9172484694397096262--6479937482870755856--0-0.16" type="actor-car-887826018055720456" depart="144.00" departLane="0" departPos="20.00" departSpeed="max" arrivalLane="1" arrivalPos="max">
        <route edges="edge-west-EW"/>
    </vehicle>
    <vehicle id="car-flow-route-edge-west-EW_0_20-edge-west-EW_1_max-9172484694397096262--6479937482870755856--0-0.17" type="actor-car-887826018055720456" depart="153.00" departLane="0" departPos="20.00" departSpeed="max" arrivalLane="1" arrivalPos="max">
        <route edges="edge-west-EW"/>
    </vehicle>
    <vehicle id="car-flow-route-edge-west-EW_0_20-edge-west-EW_1_max-9172484694397096262--6479937482870755856--0-0.18" type="actor-car-887826018055720456" depart="162.00" departLane="0" departPos="20.00" departSpeed="max" arrivalLane="1" arrivalPos="max">
        <route edges="edge-west-EW"/>
    </vehicle>
    <vehicle id="car-flow-route-edge-west-EW_0_20-edge-west-EW_1_max-9172484694397096262--6479937482870755856--0-0.19" type="actor-car-887826018055720456" depart="171.00" departLane="0" departPos="20.00" departSpeed="max" arrivalLane="1" arrivalPos="max">
        <route edges="edge-west-EW"/>
    </vehicle>
    <vehicle id="car-flow-route-edge-west-EW_0_20-edge-west-EW_1_max-9172484694397096262--6479937482870755856--0-0.20" type="actor-car-887826018055720456" depart="180.00" departLane="0" departPos="20.00" departSpeed="max" arrivalLane="1" arrivalPos="max">
        <route edges="edge-west-EW"/>
    </vehicle>
    <vehicle id="car-flow-route-edge-west-EW_0_20-edge-west-EW_1_max-9172484694397096262--6479937482870755856--0-0.21" type="actor-car-887826018055720456" depart="189.00" departLane="0" departPos="20.00" departSpeed="max" arrivalLane="1" arrivalPos="max">
        <route edges="edge-west-EW"/>
    </vehicle>
    <vehicle id="car-flow-route-edge-west-EW_0_20-edge-west-EW_1_max-9172484694397096262--6479937482870755856--0-0.22" type="actor-car-887826018055720456" depart="198.00" departLane="0" departPos="20.00" departSpeed="max" arrivalLane="1" arrivalPos="max">
        <route edges="edge-west-EW"/>
    </vehicle>
    <vehicle id="car-flow-route-edge-west-EW_0_20-edge-west-EW_1_max-9172484694397096262--6479937482870755856--0-0.23" type="actor-car-887826018055720456" depart="207.00" departLane="0" departPos="20.00" departSpeed="max" arrivalLane="1" arrivalPos="max">
        <route edges="edge-west-EW"/>
    </vehicle>
    <vehicle id="car-flow-route-edge-west-EW_0_20-edge-west-EW_1_max-9172484694397096262--6479937482870755856--0-0.24" type="actor-car-887826018055720456" depart="216.00" departLane="0" departPos="20.00" departSpeed="max" arrivalLane="1" arrivalPos="max">
        <route edges="edge-west-EW"/>
    </vehicle>
    <vehicle id="car-flow-route-edge-west-EW_0_20-edge-west-EW_1_max-9172484694397096262--6479937482870755856--0-0.25" type="actor-car-887826018055720456" depart="225.00" departLane="0" departPos="20.00" departSpeed="max" arrivalLane="1" arrivalPos="max">
        <route edges="edge-west-EW"/>
    </vehicle>
    <vehicle id="car-flow-route-edge-west-EW_0_20-edge-west-EW_1_max-9172484694397096262--6479937482870755856--0-0.26" type="actor-car-887826018055720456" depart="234.00" departLane="0" departPos="20.00" departSpeed="max" arrivalLane="1" arrivalPos="max">
        <route edges="edge-west-EW"/>
    </vehicle>
    <vehicle id="car-flow-route-edge-west-EW_0_20-edge-west-EW_1_max-9172484694397096262--6479937482870755856--0-0.27" type="actor-car-887826018055720456" depart="243.00" departLane="0" departPos="20.00" departSpeed="max" arrivalLane="1" arrivalPos="max">
        <route edges="edge-west-EW"/>
    </vehicle>
    <vehicle id="car-flow-route-edge-west-EW_0_20-edge-west-EW_1_max-9172484694397096262--6479937482870755856--0-0.28" type="actor-car-887826018055720456" depart="252.00" departLane="0" departPos="20.00" departSpeed="max" arrivalLane="1" arrivalPos="max">
        <route edges="edge-west-EW"/>
    </vehicle>
    <vehicle id="car-flow-route-edge-west-EW_0_20-edge-west-EW_1_max-9172484694397096262--6479937482870755856--0-0.29" type="actor-car-887826018055720456" depart="261.00" departLane="0" departPos="20.00" departSpeed="max" arrivalLane="1" arrivalPos="max">
        <route edges="edge-west-EW"/>
    </vehicle>
    <vehicle id="car-flow-route-edge-west-EW_0_20-edge-west-EW_1_max-9172484694397096262--6479937482870755856--0-0.30" type="actor-car-887826018055720456" depart="270.00" departLane="0" departPos="20.00" departSpeed="max" arrivalLane="1" arrivalPos="max">
        <route edges="edge-west-EW"/>
    </vehicle>
    <vehicle id="car-flow-route-edge-west-EW_0_20-edge-west-EW_1_max-9172484694397096262--6479937482870755856--0-0.31" type="actor-car-887826018055720456" depart="279.00" departLane="0" departPos="20.00" departSpeed="max" arrivalLane="1" arrivalPos="max">
        <route edges="edge-west-EW"/>
    </vehicle>
    <vehicle id="car-flow-route-edge-west-EW_0_20-edge-west-EW_1_max-9172484694397096262--6479937482870755856--0-0.32" type="actor-car-887826018055720456" depart="288.00" departLane="0" departPos="20.00" departSpeed="max" arrivalLane="1" arrivalPos="max">
        <route edges="edge-west-EW"/>
    </vehicle>
    <vehicle id="car-flow-route-edge-west-EW_0_20-edge-west-EW_1_max-9172484694397096262--6479937482870755856--0-0.33" type="actor-car-887826018055720456" depart="297.00" departLane="0" departPos="20.00" departSpeed="max" arrivalLane="1" arrivalPos="max">
        <route edges="edge-west-EW"/>
    </vehicle>
    <vehicle id="car-flow-route-edge-west-EW_0_20-edge-west-EW_1_max-9172484694397096262--6479937482870755856--0-0.34" type="actor-car-887826018055720456" depart="306.00" departLane="0" departPos="20.00" departSpeed="max" arrivalLane="1" arrivalPos="max">
        <route edges="edge-west-EW"/>
    </vehicle>
    <vehicle id="car-flow-route-edge-west-EW_0_20-edge-west-EW_1_max-9172484694397096262--6479937482870755856--0-0.35" type="actor-car-887826018055720456" depart="315.00" departLane="0" departPos="20.00" departSpeed="max" arrivalLane="1" arrivalPos="max">
        <route edges="edge-west-EW"/>
    </vehicle>
    <vehicle id="car-flow-route-edge-west-EW_0_20-edge-west-EW_1_max-9172484694397096262--6479937482870755856--0-0.36" type="actor-car-887826018055720456" depart="324.00" departLane="0" departPos="20.00" departSpeed="max" arrivalLane="1" arrivalPos="max">
        <route edges="edge-west-EW"/>
    </vehicle>
    <vehicle id="car-flow-route-edge-west-EW_0_20-edge-west-EW_1_max-9172484694397096262--6479937482870755856--0-0.37" type="actor-car-887826018055720456" depart="333.00" departLane="0" departPos="20.00" departSpeed="max" arrivalLane="1" arrivalPos="max">
        <route edges="edge-west-EW"/>
    </vehicle>
    <vehicle id="car-flow-route-edge-west-EW_0_20-edge-west-EW_1_max-9172484694397096262--6479937482870755856--0-0.38" type="actor-car-887826018055720456" depart="342.00" departLane="0" departPos="20.00" departSpeed="max" arrivalLane="1" arrivalPos="max">
        <route edges="edge-west-EW"/>
    </vehicle>
    <vehicle id="car-flow-route-edge-west-EW_0_20-edge-west-EW_1_max-9172484694397096262--6479937482870755856--0-0.39" type="actor-car-887826018055720456" depart="351.00" departLane="0" departPos="20.00" departSpeed="max" arrivalLane="1" arrivalPos="max">
        <route edges="edge-west-EW"/>
    </vehicle>
    <vehicle id="car-flow-route-edge-west-EW_0_20-edge-west-EW_1_max-9172484694397096262--6479937482870755856--0-0.40" type="actor-car-887826018055720456" depart="360.00" departLane="0" departPos="20.00" departSpeed="max" arrivalLane="1" arrivalPos="max">
        <route edges="edge-west-EW"/>
    </vehicle>
    <vehicle id="car-flow-route-edge-west-EW_0_20-edge-west-EW_1_max-9172484694397096262--6479937482870755856--0-0.41" type="actor-car-887826018055720456" depart="369.00" departLane="0" departPos="20.00" departSpeed="max" arrivalLane="1" arrivalPos="max">
        <route edges="edge-west-EW"/>
    </vehicle>
    <vehicle id="car-flow-route-edge-west-EW_0_20-edge-west-EW_1_max-9172484694397096262--6479937482870755856--0-0.42" type="actor-car-887826018055720456" depart="378.00" departLane="0" departPos="20.00" departSpeed="max" arrivalLane="1" arrivalPos="max">
        <route edges="edge-west-EW"/>
    </vehicle>
    <vehicle id="car-flow-route-edge-west-EW_0_20-edge-west-EW_1_max-9172484694397096262--6479937482870755856--0-0.43" type="actor-car-887826018055720456" depart="387.00" departLane="0" departPos="20.00" departSpeed="max" arrivalLane="1" arrivalPos="max">
        <route edges="edge-west-EW"/>
    </vehicle>
    <vehicle id="car-flow-route-edge-west-EW_0_20-edge-west-EW_1_max-9172484694397096262--6479937482870755856--0-0.44" type="actor-car-887826018055720456" depart="396.00" departLane="0" departPos="20.00" departSpeed="max" arrivalLane="1" arrivalPos="max">
        <route edges="edge-west-EW"/>
    </vehicle>
    <vehicle id="car-flow-route-edge-west-EW_0_20-edge-west-EW_1_max-9172484694397096262--6479937482870755856--0-0.45" type="actor-car-887826018055720456" depart="405.00" departLane="0" departPos="20.00" departSpeed="max" arrivalLane="1" arrivalPos="max">
        <route edges="edge-west-EW"/>
    </vehicle>
    <vehicle id="car-flow-route-edge-west-EW_0_20-edge-west-EW_1_max-9172484694397096262--6479937482870755856--0-0.46" type="actor-car-887826018055720456" depart="414.00" departLane="0" departPos="20.00" departSpeed="max" arrivalLane="1" arrivalPos="max">
        <route edges="edge-west-EW"/>
    </vehicle>
    <vehicle id="car-flow-route-edge-west-EW_0_20-edge-west-EW_1_max-9172484694397096262--6479937482870755856--0-0.47" type="actor-car-887826018055720456" depart="423.00" departLane="0" departPos="20.00" departSpeed="max" arrivalLane="1" arrivalPos="max">
        <route edges="edge-west-EW"/>
    </vehicle>
    <vehicle id="car-flow-route-edge-west-EW_0_20-edge-west-EW_1_max-9172484694397096262--6479937482870755856--0-0.48" type="actor-car-887826018055720456" depart="432.00" departLane="0" departPos="20.00" departSpeed="max" arrivalLane="1" arrivalPos="max">
        <route edges="edge-west-EW"/>
    </vehicle>
    <vehicle id="car-flow-route-edge-west-EW_0_20-edge-west-EW_1_max-9172484694397096262--6479937482870755856--0-0.49" type="actor-car-887826018055720456" depart="441.00" departLane="0" departPos="20.00" departSpeed="max" arrivalLane="1" arrivalPos="max">
        <route edges="edge-west-EW"/>
    </vehicle>
    <vehicle id="car-flow-route-edge-west-EW_0_20-edge-west-EW_1_max-9172484694397096262--6479937482870755856--0-0.50" type="actor-car-887826018055720456" depart="450.00" departLane="0" departPos="20.00" departSpeed="max" arrivalLane="1" arrivalPos="max">
        <route edges="edge-west-EW"/>
    </vehicle>
    <vehicle id="car-flow-route-edge-west-EW_0_20-edge-west-EW_1_max-9172484694397096262--6479937482870755856--0-0.51" type="actor-car-887826018055720456" depart="459.00" departLane="0" departPos="20.00" departSpeed="max" arrivalLane="1" arrivalPos="max">
        <route edges="edge-west-EW"/>
    </vehicle>
    <vehicle id="car-flow-route-edge-west-EW_0_20-edge-west-EW_1_max-9172484694397096262--6479937482870755856--0-0.52" type="actor-car-887826018055720456" depart="468.00" departLane="0" departPos="20.00" departSpeed="max" arrivalLane="1" arrivalPos="max">
        <route edges="edge-west-EW"/>
    </vehicle>
    <vehicle id="car-flow-route-edge-west-EW_0_20-edge-west-EW_1_max-9172484694397096262--6479937482870755856--0-0.53" type="actor-car-887826018055720456" depart="477.00" departLane="0" departPos="20.00" departSpeed="max" arrivalLane="1" arrivalPos="max">
        <route edges="edge-west-EW"/>
    </vehicle>
    <vehicle id="car-flow-route-edge-west-EW_0_20-edge-west-EW_1_max-9172484694397096262--6479937482870755856--0-0.54" type="actor-car-887826018055720456" depart="486.00" departLane="0" departPos="20.00" departSpeed="max" arrivalLane="1" arrivalPos="max">
        <route edges="edge-west-EW"/>
    </vehicle>
    <vehicle id="car-flow-route-edge-west-EW_0_20-edge-west-EW_1_max-9172484694397096262--6479937482870755856--0-0.55" type="actor-car-887826018055720456" depart="495.00" departLane="0" departPos="20.00" departSpeed="max" arrivalLane="1" arrivalPos="max">
        <route edges="edge-west-EW"/>
    </vehicle>
    <vehicle id="car-flow-route-edge-west-EW_0_20-edge-west-EW_1_max-9172484694397096262--6479937482870755856--0-0.56" type="actor-car-887826018055720456" depart="504.00" departLane="0" departPos="20.00" departSpeed="max" arrivalLane="1" arrivalPos="max">
        <route edges="edge-west-EW"/>
    </vehicle>
    <vehicle id="car-flow-route-edge-west-EW_0_20-edge-west-EW_1_max-9172484694397096262--6479937482870755856--0-0.57" type="actor-car-887826018055720456" depart="513.00" departLane="0" departPos="20.00" departSpeed="max" arrivalLane="1" arrivalPos="max">
        <route edges="edge-west-EW"/>
    </vehicle>
    <vehicle id="car-flow-route-edge-west-EW_0_20-edge-west-EW_1_max-9172484694397096262--6479937482870755856--0-0.58" type="actor-car-887826018055720456" depart="522.00" departLane="0" departPos="20.00" departSpeed="max" arrivalLane="1" arrivalPos="max">
        <route edges="edge-west-EW"/>
    </vehicle>
    <vehicle id="car-flow-route-edge-west-EW_0_20-edge-west-EW_1_max-9172484694397096262--6479937482870755856--0-0.59" type="actor-car-887826018055720456" depart="531.00" departLane="0" departPos="20.00" departSpeed="max" arrivalLane="1" arrivalPos="max">
        <route edges="edge-west-EW"/>
    </vehicle>
    <vehicle id="car-flow-route-edge-west-EW_0_20-edge-west-EW_1_max-9172484694397096262--6479937482870755856--0-0.60" type="actor-car-887826018055720456" depart="540.00" departLane="0" departPos="20.00" departSpeed="max" arrivalLane="1" arrivalPos="max">
        <route edges="edge-west-EW"/>
    </vehicle>
    <vehicle id="car-flow-route-edge-west-EW_0_20-edge-west-EW_1_max-9172484694397096262--6479937482870755856--0-0.61" type="actor-car-887826018055720456" depart="549.00" departLane="0" departPos="20.00" departSpeed="max" arrivalLane="1" arrivalPos="max">
        <route edges="edge-west-EW"/>
    </vehicle>
    <vehicle id="car-flow-route-edge-west-EW_0_20-edge-west-EW_1_max-9172484694397096262--6479937482870755856--0-0.62" type="actor-car-887826018055720456" depart="558.00" departLane="0" departPos="20.00" departSpeed="max" arrivalLane="1" arrivalPos="max">
        <route edges="edge-west-EW"/>
    </vehicle>
    <vehicle id="car-flow-route-edge-west-EW_0_20-edge-west-EW_1_max-9172484694397096262--6479937482870755856--0-0.63" type="actor-car-887826018055720456" depart="567.00" departLane="0" departPos="20.00" departSpeed="max" arrivalLane="1" arrivalPos="max">
        <route edges="edge-west-EW"/>
    </vehicle>
    <vehicle id="car-flow-route-edge-west-EW_0_20-edge-west-EW_1_max-9172484694397096262--6479937482870755856--0-0.64" type="actor-car-887826018055720456" depart="576.00" departLane="0" departPos="20.00" departSpeed="max" arrivalLane="1" arrivalPos="max">
        <route edges="edge-west-EW"/>
    </vehicle>
    <vehicle id="car-flow-route-edge-west-EW_0_20-edge-west-EW_1_max-9172484694397096262--6479937482870755856--0-0.65" type="actor-car-887826018055720456" depart="585.00" departLane="0" departPos="20.00" departSpeed="max" arrivalLane="1" arrivalPos="max">
        <route edges="edge-west-EW"/>
    </vehicle>
    <vehicle id="car-flow-route-edge-west-EW_0_20-edge-west-EW_1_max-9172484694397096262--6479937482870755856--0-0.66" type="actor-car-887826018055720456" depart="594.00" departLane="0" departPos="20.00" departSpeed="max" arrivalLane="1" arrivalPos="max">
        <route edges="edge-west-EW"/>
    </vehicle>
    <vehicle id="car-flow-route-edge-west-EW_0_20-edge-west-EW_1_max-9172484694397096262--6479937482870755856--0-0.67" type="actor-car-887826018055720456" depart="603.00" departLane="0" departPos="20.00" departSpeed="max" arrivalLane="1" arrivalPos="max">
        <route edges="edge-west-EW"/>
    </vehicle>
    <vehicle id="car-flow-route-edge-west-EW_0_20-edge-west-EW_1_max-9172484694397096262--6479937482870755856--0-0.68" type="actor-car-887826018055720456" depart="612.00" departLane="0" departPos="20.00" departSpeed="max" arrivalLane="1" arrivalPos="max">
        <route edges="edge-west-EW"/>
    </vehicle>
    <vehicle id="car-flow-route-edge-west-EW_0_20-edge-west-EW_1_max-9172484694397096262--6479937482870755856--0-0.69" type="actor-car-887826018055720456" depart="621.00" departLane="0" departPos="20.00" departSpeed="max" arrivalLane="1" arrivalPos="max">
        <route edges="edge-west-EW"/>
    </vehicle>
    <vehicle id="car-flow-route-edge-west-EW_0_20-edge-west-EW_1_max-9172484694397096262--6479937482870755856--0-0.70" type="actor-car-887826018055720456" depart="630.00" departLane="0" departPos="20.00" departSpeed="max" arrivalLane="1" arrivalPos="max">
        <route edges="edge-west-EW"/>
    </vehicle>
    <vehicle id="car-flow-route-edge-west-EW_0_20-edge-west-EW_1_max-9172484694397096262--6479937482870755856--0-0.71" type="actor-car-887826018055720456" depart="639.00" departLane="0" departPos="20.00" departSpeed="max" arrivalLane="1" arrivalPos="max">
        <route edges="edge-west-EW"/>
    </vehicle>
    <vehicle id="car-flow-route-edge-west-EW_0_20-edge-west-EW_1_max-9172484694397096262--6479937482870755856--0-0.72" type="actor-car-887826018055720456" depart="648.00" departLane="0" departPos="20.00" departSpeed="max" arrivalLane="1" arrivalPos="max">
        <route edges="edge-west-EW"/>
    </vehicle>
    <vehicle id="car-flow-route-edge-west-EW_0_20-edge-west-EW_1_max-9172484694397096262--6479937482870755856--0-0.73" type="actor-car-887826018055720456" depart="657.00" departLane="0" departPos="20.00" departSpeed="max" arrivalLane="1" arrivalPos="max">
        <route edges="edge-west-EW"/>
    </vehicle>
    <vehicle id="car-flow-route-edge-west-EW_0_20-edge-west-EW_1_max-9172484694397096262--6479937482870755856--0-0.74" type="actor-car-887826018055720456" depart="666.00" departLane="0" departPos="20.00" departSpeed="max" arrivalLane="1" arrivalPos="max">
        <route edges="edge-west-EW"/>
    </vehicle>
    <vehicle id="car-flow-route-edge-west-EW_0_20-edge-west-EW_1_max-9172484694397096262--6479937482870755856--0-0.75" type="actor-car-887826018055720456" depart="675.00" departLane="0" departPos="20.00" departSpeed="max" arrivalLane="1" arrivalPos="max">
        <route edges="edge-west-EW"/>
    </vehicle>
    <vehicle id="car-flow-route-edge-west-EW_0_20-edge-west-EW_1_max-9172484694397096262--6479937482870755856--0-0.76" type="actor-car-887826018055720456" depart="684.00" departLane="0" departPos="20.00" departSpeed="max" arrivalLane="1" arrivalPos="max">
        <route edges="edge-west-EW"/>
    </vehicle>
    <vehicle id="car-flow-route-edge-west-EW_0_20-edge-west-EW_1_max-9172484694397096262--6479937482870755856--0-0.77" type="actor-car-887826018055720456" depart="693.00" departLane="0" departPos="20.00" departSpeed="max" arrivalLane="1" arrivalPos="max">
        <route edges="edge-west-EW"/>
    </vehicle>
    <vehicle id="car-flow-route-edge-west-EW_0_20-edge-west-EW_1_max-9172484694397096262--6479937482870755856--0-0.78" type="actor-car-887826018055720456" depart="702.00" departLane="0" departPos="20.00" departSpeed="max" arrivalLane="1" arrivalPos="max">
        <route edges="edge-west-EW"/>
    </vehicle>
    <vehicle id="car-flow-route-edge-west-EW_0_20-edge-west-EW_1_max-9172484694397096262--6479937482870755856--0-0.79" type="actor-car-887826018055720456" depart="711.00" departLane="0" departPos="20.00" departSpeed="max" arrivalLane="1" arrivalPos="max">
        <route edges="edge-west-EW"/>
    </vehicle>
    <vehicle id="car-flow-route-edge-west-EW_0_20-edge-west-EW_1_max-9172484694397096262--6479937482870755856--0-0.80" type="actor-car-887826018055720456" depart="720.00" departLane="0" departPos="20.00" departSpeed="max" arrivalLane="1" arrivalPos="max">
        <route edges="edge-west-EW"/>
    </vehicle>
    <vehicle id="car-flow-route-edge-west-EW_0_20-edge-west-EW_1_max-9172484694397096262--6479937482870755856--0-0.81" type="actor-car-887826018055720456" depart="729.00" departLane="0" departPos="20.00" departSpeed="max" arrivalLane="1" arrivalPos="max">
        <route edges="edge-west-EW"/>
    </vehicle>
    <vehicle id="car-flow-route-edge-west-EW_0_20-edge-west-EW_1_max-9172484694397096262--6479937482870755856--0-0.82" type="actor-car-887826018055720456" depart="738.00" departLane="0" departPos="20.00" departSpeed="max" arrivalLane="1" arrivalPos="max">
        <route edges="edge-west-EW"/>
    </vehicle>
    <vehicle id="car-flow-route-edge-west-EW_0_20-edge-west-EW_1_max-9172484694397096262--6479937482870755856--0-0.83" type="actor-car-887826018055720456" depart="747.00" departLane="0" departPos="20.00" departSpeed="max" arrivalLane="1" arrivalPos="max">
        <route edges="edge-west-EW"/>
    </vehicle>
    <vehicle id="car-flow-route-edge-west-EW_0_20-edge-west-EW_1_max-9172484694397096262--6479937482870755856--0-0.84" type="actor-car-887826018055720456" depart="756.00" departLane="0" departPos="20.00" departSpeed="max" arrivalLane="1" arrivalPos="max">
        <route edges="edge-west-EW"/>
    </vehicle>
    <vehicle id="car-flow-route-edge-west-EW_0_20-edge-west-EW_1_max-9172484694397096262--6479937482870755856--0-0.85" type="actor-car-887826018055720456" depart="765.00" departLane="0" departPos="20.00" departSpeed="max" arrivalLane="1" arrivalPos="max">
        <route edges="edge-west-EW"/>
    </vehicle>
    <vehicle id="car-flow-route-edge-west-EW_0_20-edge-west-EW_1_max-9172484694397096262--6479937482870755856--0-0.86" type="actor-car-887826018055720456" depart="774.00" departLane="0" departPos="20.00" departSpeed="max" arrivalLane="1" arrivalPos="max">
        <route edges="edge-west-EW"/>
    </vehicle>
    <vehicle id="car-flow-route-edge-west-EW_0_20-edge-west-EW_1_max-9172484694397096262--6479937482870755856--0-0.87" type="actor-car-887826018055720456" depart="783.00" departLane="0" departPos="20.00" departSpeed="max" arrivalLane="1" arrivalPos="max">
        <route edges="edge-west-EW"/>
    </vehicle>
    <vehicle id="car-flow-route-edge-west-EW_0_20-edge-west-EW_1_max-9172484694397096262--6479937482870755856--0-0.88" type="actor-car-887826018055720456" depart="792.00" departLane="0" departPos="20.00" departSpeed="max" arrivalLane="1" arrivalPos="max">
        <route edges="edge-west-EW"/>
    </vehicle>
    <vehicle id="car-flow-route-edge-west-EW_0_20-edge-west-EW_1_max-9172484694397096262--6479937482870755856--0-0.89" type="actor-car-887826018055720456" depart="801.00" departLane="0" departPos="20.00" departSpeed="max" arrivalLane="1" arrivalPos="max">
        <route edges="edge-west-EW"/>
    </vehicle>
    <vehicle id="car-flow-route-edge-west-EW_0_20-edge-west-EW_1_max-9172484694397096262--6479937482870755856--0-0.90" type="actor-car-887826018055720456" depart="810.00" departLane="0" departPos="20.00" departSpeed="max" arrivalLane="1" arrivalPos="max">
        <route edges="edge-west-EW"/>
    </vehicle>
    <vehicle id="car-flow-route-edge-west-EW_0_20-edge-west-EW_1_max-9172484694397096262--6479937482870755856--0-0.91" type="actor-car-887826018055720456" depart="819.00" departLane="0" departPos="20.00" departSpeed="max" arrivalLane="1" arrivalPos="max">
        <route edges="edge-west-EW"/>
    </vehicle>
    <vehicle id="car-flow-route-edge-west-EW_0_20-edge-west-EW_1_max-9172484694397096262--6479937482870755856--0-0.92" type="actor-car-887826018055720456" depart="828.00" departLane="0" departPos="20.00" departSpeed="max" arrivalLane="1" arrivalPos="max">