<?xml version="1.0" encoding="UTF-8"?>

<!-- generated on 2021-06-17 11:12:45 by Eclipse SUMO duarouter Version 1.9.2
<configuration xmlns:xsi="http://www.w3.org/2001/XMLSchema-instance" xsi:noNamespaceSchemaLocation="http://sumo.dlr.de/xsd/duarouterConfiguration.xsd">

    <input>
        <net-file value="/home/dikshant/github/SMARTS-lite/ultra/ultra/scenarios/task1/train_easy_2lane_t_100kmh_low-density-flow-7/map.net.xml"/>
        <route-files value="/tmp/tmpppft9tls/trips.trips.xml"/>
    </input>

    <output>
        <output-file value="/home/dikshant/github/SMARTS-lite/ultra/ultra/scenarios/task1/train_easy_2lane_t_100kmh_low-density-flow-7/traffic/all.rou.xml"/>
        <alternatives-output value="/home/dikshant/github/SMARTS-lite/ultra/ultra/scenarios/task1/train_easy_2lane_t_100kmh_low-density-flow-7/traffic/all.rou.alt.xml"/>
    </output>

    <processing>
        <unsorted-input value="true"/>
        <repair value="true"/>
    </processing>

    <report>
        <error-log value="/home/dikshant/.smarts/_duarouter_routing/traffic/all.log"/>
        <no-step-log value="true"/>
    </report>

    <random_number>
        <seed value="2"/>
    </random_number>

</configuration>
-->

<routes xmlns:xsi="http://www.w3.org/2001/XMLSchema-instance" xsi:noNamespaceSchemaLocation="http://sumo.dlr.de/xsd/routes_file.xsd">
    <vType id="actor-default-8322116838025798517" minGap="2.43" maxSpeed="55.50" speedFactor="normc(1.00,0.05,0.20,2.00)" vClass="passenger" accel="3.0" decel="7.5" sigma="0.5417574289833681"/>
    <vehicle id="default-flow-route-edge-west-WE_0_base-edge-east-WE_0_max--923470567446612579---7781681476790625976--200-0.0" type="actor-default-8322116838025798517" depart="10.00" departLane="0" departPos="base" departSpeed="max" arrivalLane="0" arrivalPos="max">
        <route edges="edge-west-WE edge-east-WE"/>
    </vehicle>
    <vehicle id="default-flow-route-edge-west-WE_0_base-edge-south-NS_0_max--7064645609782771451---7781681476790625976--1200-0.0" type="actor-default-8322116838025798517" depart="13.00" departLane="0" departPos="base" departSpeed="max" arrivalLane="0" arrivalPos="max">
        <route edges="edge-west-WE edge-south-NS"/>
    </vehicle>
    <vehicle id="default-flow-route-edge-west-WE_0_base-edge-east-WE_0_max--923470567446612579---7781681476790625976--201-0.0" type="actor-default-8322116838025798517" depart="17.00" departLane="0" departPos="base" departSpeed="max" arrivalLane="0" arrivalPos="max">
        <route edges="edge-west-WE edge-east-WE"/>
    </vehicle>
    <vehicle id="default-flow-route-edge-west-WE_0_base-edge-east-WE_0_max--923470567446612579---7781681476790625976--202-0.0" type="actor-default-8322116838025798517" depart="32.00" departLane="0" departPos="base" departSpeed="max" arrivalLane="0" arrivalPos="max">
        <route edges="edge-west-WE edge-east-WE"/>
    </vehicle>
    <vehicle id="default-flow-route-edge-west-WE_0_base-edge-south-NS_0_max--7064645609782771451---7781681476790625976--1201-0.0" type="actor-default-8322116838025798517" depart="49.00" departLane="0" departPos="base" departSpeed="max" arrivalLane="0" arrivalPos="max">
        <route edges="edge-west-WE edge-south-NS"/>
    </vehicle>
    <vehicle id="default-flow-route-edge-south-SN_0_base-edge-west-EW_0_max--7635321201474816207---7781681476790625976--0-0.0" type="actor-default-8322116838025798517" depart="56.00" departLane="0" departPos="base" departSpeed="max" arrivalLane="0" arrivalPos="max">
        <route edges="edge-south-SN edge-west-EW"/>
    </vehicle>
    <vehicle id="default-flow-route-edge-west-WE_0_base-edge-south-NS_0_max--7064645609782771451---7781681476790625976--1202-0.0" type="actor-default-8322116838025798517" depart="78.00" departLane="0" departPos="base" departSpeed="max" arrivalLane="0" arrivalPos="max">
        <route edges="edge-west-WE edge-south-NS"/>
    </vehicle>
    <vehicle id="default-flow-route-edge-west-WE_0_base-edge-south-NS_0_max--7064645609782771451---7781681476790625976--1203-0.0" type="actor-default-8322116838025798517" depart="88.00" departLane="0" departPos="base" departSpeed="max" arrivalLane="0" arrivalPos="max">
        <route edges="edge-west-WE edge-south-NS"/>
    </vehicle>
    <vehicle id="default-flow-route-edge-east-EW_0_base-edge-west-EW_0_max--6070551866706451998---7781681476790625976--1300-0.0" type="actor-default-8322116838025798517" depart="96.00" departLane="0" departPos="base" departSpeed="max" arrivalLane="0" arrivalPos="max">
        <route edges="edge-east-EW edge-west-EW"/>
    </vehicle>
    <vehicle id="default-flow-route-edge-east-EW_0_base-edge-west-EW_0_max--6070551866706451998---7781681476790625976--1301-0.0" type="actor-default-8322116838025798517" depart="100.00" departLane="0" departPos="base" departSpeed="max" arrivalLane="0" arrivalPos="max">
        <route edges="edge-east-EW edge-west-EW"/>
    </vehicle>
    <vehicle id="default-flow-route-edge-south-SN_0_base-edge-west-EW_0_max--7635321201474816207---7781681476790625976--1-0.0" type="actor-default-8322116838025798517" depart="109.00" departLane="0" departPos="base" departSpeed="max" arrivalLane="0" arrivalPos="max">
        <route edges="edge-south-SN edge-west-EW"/>
    </vehicle>
    <vType id="actor-cautious--2373361519376888597" minGap="5.01" maxSpeed="55.50" speedFactor="normc(0.40,0.10,0.20,2.00)" vClass="passenger" impatience="0.00" lcStrategic="1" lcSpeedGain="1" lcKeepRight="1" lcPushy="0.2" lcImpatience="0" lcLookaheadLeft="2.9" lcOvertakeRight="0" jmIgnoreFoeProb="0.0" jmTimegapMinor="1.0" accel="3.0" decel="10.0" sigma="0.5197429810615581"/>
    <vehicle id="cautious-flow-route-edge-south-SN_0_base-edge-east-WE_0_max-7154147728478964345---6517990416896892420--100-0.0" type="actor-cautious--2373361519376888597" depart="126.00" departLane="0" departPos="base" departSpeed="max" arrivalLane="0" arrivalPos="max">
        <route edges="edge-south-SN edge-east-WE"/>
    </vehicle>
    <vehicle id="default-flow-route-edge-west-WE_0_base-edge-east-WE_0_max--923470567446612579---7781681476790625976--203-0.0" type="actor-default-8322116838025798517" depart="132.00" departLane="0" departPos="base" departSpeed="max" arrivalLane="0" arrivalPos="max">
        <route edges="edge-west-WE edge-east-WE"/>
    </vehicle>
    <vehicle id="cautious-flow-route-edge-south-SN_0_base-edge-west-EW_0_max--7635321201474816207---6517990416896892420--2-0.0" type="actor-cautious--2373361519376888597" depart="147.00" departLane="0" departPos="base" departSpeed="max" arrivalLane="0" arrivalPos="max">
        <route edges="edge-south-SN edge-west-EW"/>
    </vehicle>
    <vehicle id="default-flow-route-edge-south-SN_0_base-edge-west-EW_0_max--7635321201474816207---7781681476790625976--3-0.0" type="actor-default-8322116838025798517" depart="161.00" departLane="0" departPos="base" departSpeed="max" arrivalLane="0" arrivalPos="max">
        <route edges="edge-south-SN edge-west-EW"/>
    </vehicle>
    <vehicle id="default-flow-route-edge-south-SN_0_base-edge-east-WE_0_max-7154147728478964345---7781681476790625976--101-0.0" type="actor-default-8322116838025798517" depart="166.00" departLane="0" departPos="base" departSpeed="max" arrivalLane="0" arrivalPos="max">
        <route edges="edge-south-SN edge-east-WE"/>
    </vehicle>
    <vehicle id="default-flow-route-edge-west-WE_0_base-edge-south-NS_0_max--7064645609782771451---7781681476790625976--1204-0.0" type="actor-default-8322116838025798517" depart="177.00" departLane="0" departPos="base" departSpeed="max" arrivalLane="0" arrivalPos="max">
        <route edges="edge-west-WE edge-south-NS"/>
    </vehicle>
    <vehicle id="default-flow-route-edge-east-EW_0_base-edge-south-NS_0_max--6034614037842582270---7781681476790625976--2300-0.0" type="actor-default-8322116838025798517" depart="178.00" departLane="0" departPos="base" departSpeed="max" arrivalLane="0" arrivalPos="max">
        <route edges="edge-east-EW edge-south-NS"/>
    </vehicle>
    <vehicle id="default-flow-route-edge-south-SN_0_base-edge-east-WE_0_max-7154147728478964345---7781681476790625976--102-0.0" type="actor-default-8322116838025798517" depart="178.00" departLane="0" departPos="base" departSpeed="max" arrivalLane="0" arrivalPos="max">
        <route edges="edge-south-SN edge-east-WE"/>
    </vehicle>
    <vehicle id="default-flow-route-edge-west-WE_0_base-edge-south-NS_0_max--7064645609782771451---7781681476790625976--1205-0.0" type="actor-default-8322116838025798517" depart="185.00" departLane="0" departPos="base" departSpeed="max" arrivalLane="0" arrivalPos="max">
        <route edges="edge-west-WE edge-south-NS"/>
    </vehicle>
    <vehicle id="default-flow-route-edge-east-EW_0_base-edge-west-EW_0_max--6070551866706451998---7781681476790625976--1302-0.0" type="actor-default-8322116838025798517" depart="200.00" departLane="0" departPos="base" departSpeed="max" arrivalLane="0" arrivalPos="max">
        <route edges="edge-east-EW edge-west-EW"/>
    </vehicle>
    <vehicle id="default-flow-route-edge-west-WE_0_base-edge-south-NS_0_max--7064645609782771451---7781681476790625976--1206-0.0" type="actor-default-8322116838025798517" depart="200.00" departLane="0" departPos="base" departSpeed="max" arrivalLane="0" arrivalPos="max">
        <route edges="edge-west-WE edge-south-NS"/>
    </vehicle>
    <vType id="actor-aggressive--4735503655220445185" minGap="0.92" maxSpeed="55.50" speedFactor="normc(1.50,0.10,0.20,2.00)" vClass="passenger" impatience="0.98" lcStrategic="10" lcSpeedGain="200" lcPushy="1.0" lcImpatience="1.0" lcTimeToImpatience="0.01" lcLookaheadLeft="0.0" lcOvertakeRight="1" jmIgnoreFoeProb="0.98" jmTimegapMinor="0.1" accel="10.0" decel="10.0" sigma="0.05852220948509661"/>
    <vehicle id="aggressive-flow-route-edge-east-EW_0_base-edge-south-NS_0_max--6034614037842582270--3503539270674168220--2301-0.0" type="actor-aggressive--4735503655220445185" depart="218.00" departLane="0" departPos="base" departSpeed="max" arrivalLane="0" arrivalPos="max">
        <route edges="edge-east-EW edge-south-NS"/>
    </vehicle>
    <vehicle id="default-flow-route-edge-south-SN_0_base-edge-east-WE_0_max-7154147728478964345---7781681476790625976--103-0.0" type="actor-default-8322116838025798517" depart="227.00" departLane="0" departPos="base" departSpeed="max" arrivalLane="0" arrivalPos="max">
        <route edges="edge-south-SN edge-east-WE"/>
    </vehicle>
    <vehicle id="default-flow-route-edge-west-WE_0_base-edge-east-WE_0_max--923470567446612579---7781681476790625976--204-0.0" type="actor-default-8322116838025798517" depart="237.00" departLane="0" departPos="base" departSpeed="max" arrivalLane="0" arrivalPos="max">
        <route edges="edge-west-WE edge-east-WE"/>
    </vehicle>
    <vehicle id="default-flow-route-edge-south-SN_0_base-edge-east-WE_0_max-7154147728478964345---7781681476790625976--104-0.0" type="actor-default-8322116838025798517" depart="279.00" departLane="0" departPos="base" departSpeed="max" arrivalLane="0" arrivalPos="max">
        <route edges="edge-south-SN edge-east-WE"/>
    </vehicle>
    <vehicle id="default-flow-route-edge-east-EW_0_base-edge-west-EW_0_max--6070551866706451998---7781681476790625976--1303-0.0" type="actor-default-8322116838025798517" depart="300.00" departLane="0" departPos="base" departSpeed="max" arrivalLane="0" arrivalPos="max">
        <route edges="edge-east-EW edge-west-EW"/>
    </vehicle>
    <vehicle id="default-flow-route-edge-south-SN_0_base-edge-west-EW_0_max--7635321201474816207---7781681476790625976--4-0.0" type="actor-default-8322116838025798517" depart="303.00" departLane="0" departPos="base" departSpeed="max" arrivalLane="0" arrivalPos="max">
        <route edges="edge-south-SN edge-west-EW"/>
    </vehicle>
    <vehicle id="default-flow-route-edge-west-WE_0_base-edge-east-WE_0_max--923470567446612579---7781681476790625976--205-0.0" type="actor-default-8322116838025798517" depart="305.00" departLane="0" departPos="base" departSpeed="max" arrivalLane="0" arrivalPos="max">
        <route edges="edge-west-WE edge-east-WE"/>
    </vehicle>
    <vehicle id="default-flow-route-edge-west-WE_0_base-edge-south-NS_0_max--7064645609782771451---7781681476790625976--1207-0.0" type="actor-default-8322116838025798517" depart="315.00" departLane="0" departPos="base" departSpeed="max" arrivalLane="0" arrivalPos="max">
        <route edges="edge-west-WE edge-south-NS"/>
    </vehicle>
    <vehicle id="default-flow-route-edge-east-EW_0_base-edge-west-EW_0_max--6070551866706451998---7781681476790625976--1304-0.0" type="actor-default-8322116838025798517" depart="318.00" departLane="0" departPos="base" departSpeed="max" arrivalLane="0" arrivalPos="max">
        <route edges="edge-east-EW edge-west-EW"/>
    </vehicle>
    <vType id="actor-blocker-886141202779652813" minGap="0.93" maxSpeed="55.50" speedFactor="normc(0.20,0.10,0.20,2.00)" vClass="passenger" impatience="0.00" lcStrategic="0" lcCooperative="0.0" lcSpeedGain="1" lcKeepRight="0.0" lcOpposite="0" lcPushy="0" lcImpatience="0.0" lcTimeToImpatience="1000" lcOvertakeRight="0" jmIgnoreFoeProb="0.0" jmTimegapMinor="1.0" accel="3.0" decel="7.5" sigma="0.23381667361759023"/>
    <vehicle id="blocker-flow-route-edge-south-SN_0_base-edge-east-WE_0_max-7154147728478964345---4084236349552295711--105-0.0" type="actor-blocker-886141202779652813" depart="334.00" departLane="0" departPos="base" departSpeed="max" arrivalLane="0" arrivalPos="max">
        <route edges="edge-south-SN edge-east-WE"/>
    </vehicle>
    <vehicle id="cautious-flow-route-edge-east-EW_0_base-edge-south-NS_0_max--6034614037842582270---6517990416896892420--2302-0.0" type="actor-cautious--2373361519376888597" depart="337.00" departLane="0" departPos="base" departSpeed="max" arrivalLane="0" arrivalPos="max">
        <route edges="edge-east-EW edge-south-NS"/>
    </vehicle>
    <vehicle id="default-flow-route-edge-south-SN_0_base-edge-west-EW_0_max--7635321201474816207---7781681476790625976--5-0.0" type="actor-default-8322116838025798517" depart="337.00" departLane="0" departPos="base" departSpeed="max" arrivalLane="0" arrivalPos="max">
        <route edges="edge-south-SN edge-west-EW"/>
    </vehicle>
    <vehicle id="default-flow-route-edge-east-EW_0_base-edge-west-EW_0_max--6070551866706451998---7781681476790625976--1305-0.0" type="actor-default-8322116838025798517" depart="357.00" departLane="0" departPos="base" departSpeed="max" arrivalLane="0" arrivalPos="max">
        <route edges="edge-east-EW edge-west-EW"/>
    </vehicle>
    <vehicle id="default-flow-route-edge-east-EW_0_base-edge-south-NS_0_max--6034614037842582270---7781681476790625976--2303-0.0" type="actor-default-8322116838025798517" depart="359.00" departLane="0" departPos="base" departSpeed="max" arrivalLane="0" arrivalPos="max">
        <route edges="edge-east-EW edge-south-NS"/>
    </vehicle>
    <vehicle id="default-flow-route-edge-south-SN_0_base-edge-west-EW_0_max--7635321201474816207---7781681476790625976--6-0.0" type="actor-default-8322116838025798517" depart="374.00" departLane="0" departPos="base" departSpeed="max" arrivalLane="0" arrivalPos="max">
        <route edges="edge-south-SN edge-west-EW"/>
    </vehicle>
    <vehicle id="default-flow-route-edge-west-WE_0_base-edge-south-NS_0_max--7064645609782771451---7781681476790625976--1208-0.0" type="actor-default-8322116838025798517" depart="410.00" departLane="0" departPos="base" departSpeed="max" arrivalLane="0" arrivalPos="max">
        <route edges="edge-west-WE edge-south-NS"/>
    </vehicle>
    <vehicle id="default-flow-route-edge-west-WE_0_base-edge-south-NS_0_max--7064645609782771451---7781681476790625976--1209-0.0" type="actor-default-8322116838025798517" depart="419.00" departLane="0" departPos="base" departSpeed="max" arrivalLane="0" arrivalPos="max">
        <route edges="edge-west-WE edge-south-NS"/>
    </vehicle>
    <vehicle id="default-flow-route-edge-west-WE_0_base-edge-east-WE_0_max--923470567446612579---7781681476790625976--206-0.0" type="actor-default-8322116838025798517" depart="444.00" departLane="0" departPos="base" departSpeed="max" arrivalLane="0" arrivalPos="max">
        <route edges="edge-west-WE edge-east-WE"/>
    </vehicle>
    <vehicle id="default-flow-route-edge-south-SN_0_base-edge-east-WE_0_max-7154147728478964345---7781681476790625976--106-0.0" type="actor-default-8322116838025798517" depart="446.00" departLane="0" departPos="base" departSpeed="max" arrivalLane="0" arrivalPos="max">
        <route edges="edge-south-SN edge-east-WE"/>
    </vehicle>
    <vehicle id="default-flow-route-edge-east-EW_0_base-edge-south-NS_0_max--6034614037842582270---7781681476790625976--2304-0.0" type="actor-default-8322116838025798517" depart="451.00" departLane="0" departPos="base" departSpeed="max" arrivalLane="0" arrivalPos="max">
        <route edges="edge-east-EW edge-south-NS"/>
    </vehicle>
    <vehicle id="default-flow-route-edge-east-EW_0_base-edge-west-EW_0_max--6070551866706451998---7781681476790625976--1306-0.0" type="actor-default-8322116838025798517" depart="455.00" departLane="0" departPos="base" departSpeed="max" arrivalLane="0" arrivalPos="max">
        <route edges="edge-east-EW edge-west-EW"/>
    </vehicle>
    <vehicle id="default-flow-route-edge-east-EW_0_base-edge-south-NS_0_max--6034614037842582270---7781681476790625976--2305-0.0" type="actor-default-8322116838025798517" depart="488.00" departLane="0" departPos="base" departSpeed="max" arrivalLane="0" arrivalPos="max">
        <route edges="edge-east-EW edge-south-NS"/>
    </vehicle>
    <vehicle id="default-flow-route-edge-east-EW_0_base-edge-south-NS_0_max--6034614037842582270---7781681476790625976--2306-0.0" type="actor-default-8322116838025798517" depart="492.00" departLane="0" departPos="base" departSpeed="max" arrivalLane="0" arrivalPos="max">
        <route edges="edge-east-EW edge-south-NS"/>
    </vehicle>
    <vehicle id="default-flow-route-edge-south-SN_0_base-edge-east-WE_0_max-7154147728478964345---7781681476790625976--107-0.0" type="actor-default-8322116838025798517" depart="497.00" departLane="0" departPos="base" departSpeed="max" arrivalLane="0" arrivalPos="max">
        <route edges="edge-south-SN edge-east-WE"/>
    </vehicle>
    <vehicle id="default-flow-route-edge-south-SN_0_base-edge-west-EW_0_max--7635321201474816207---7781681476790625976--7-0.0" type="actor-default-8322116838025798517" depart="505.00" departLane="0" departPos="base" departSpeed="max" arrivalLane="0" arrivalPos="max">
        <route edges="edge-south-SN edge-west-EW"/>
    </vehicle>
    <vehicle id="default-flow-route-edge-west-WE_0_base-edge-south-NS_0_max--7064645609782771451---7781681476790625976--1210-0.0" type="actor-default-8322116838025798517" depart="514.00" departLane="0" departPos="base" departSpeed="max" arrivalLane="0" arrivalPos="max">
        <route edges="edge-west-WE edge-south-NS"/>
    </vehicle>
    <vehicle id="default-flow-route-edge-west-WE_0_base-edge-east-WE_0_max--923470567446612579---7781681476790625976--207-0.0" type="actor-default-8322116838025798517" depart="515.00" departLane="0" departPos="base" departSpeed="max" arrivalLane="0" arrivalPos="max">
        <route edges="edge-west-WE edge-east-WE"/>
    </vehicle>
    <vehicle id="default-flow-route-edge-west-WE_0_base-edge-east-WE_0_max--923470567446612579---7781681476790625976--208-0.0" type="actor-default-8322116838025798517" depart="522.00" departLane="0" departPos="base" departSpeed="max" arrivalLane="0" arrivalPos="max">
        <route edges="edge-west-WE edge-east-WE"/>
    </vehicle>
    <vehicle id="default-flow-route-edge-south-SN_0_base-edge-west-EW_0_max--7635321201474816207---7781681476790625976--8-0.0" type="actor-default-8322116838025798517" depart="523.00" departLane="0" departPos="base" departSpeed="max" arrivalLane="0" arrivalPos="max">
        <route edges="edge-south-SN edge-west-EW"/>
    </vehicle>
    <vehicle id="default-flow-route-edge-south-SN_0_base-edge-east-WE_0_max-7154147728478964345---7781681476790625976--108-0.0" type="actor-default-8322116838025798517" depart="528.00" departLane="0" departPos="base" departSpeed="max" arrivalLane="0" arrivalPos="max">
        <route edges="edge-south-SN edge-east-WE"/>
    </vehicle>
    <vehicle id="default-flow-route-edge-west-WE_0_base-edge-east-WE_0_max--923470567446612579---7781681476790625976--209-0.0" type="actor-default-8322116838025798517" depart="531.00" departLane="0" departPos="base" departSpeed="max" arrivalLane="0" arrivalPos="max">
        <route edges="edge-west-WE edge-east-WE"/>
    </vehicle>
    <vehicle id="default-flow-route-edge-south-SN_0_base-edge-west-EW_0_max--7635321201474816207---7781681476790625976--9-0.0" type="actor-default-8322116838025798517" depart="550.00" departLane="0" departPos="base" departSpeed="max" arrivalLane="0" arrivalPos="max">
        <route edges="edge-south-SN edge-west-EW"/>
    </vehicle>
    <vehicle id="default-flow-route-edge-south-SN_0_base-edge-west-EW_0_max--7635321201474816207---7781681476790625976--10-0.0" type="actor-default-8322116838025798517" depart="559.00" departLane="0" departPos="base" departSpeed="max" arrivalLane="0" arrivalPos="max">
        <route edges="edge-south-SN edge-west-EW"/>
    </vehicle>
    <vehicle id="cautious-flow-route-edge-west-WE_0_base-edge-east-WE_0_max--923470567446612579---6517990416896892420--210-0.0" type="actor-cautious--2373361519376888597" depart="577.00" departLane="0" departPos="base" departSpeed="max" arrivalLane="0" arrivalPos="max">
        <route edges="edge-west-WE edge-east-WE"/>
    </vehicle>
    <vehicle id="default-flow-route-edge-east-EW_0_base-edge-west-EW_0_max--6070551866706451998---7781681476790625976--1307-0.0" type="actor-default-8322116838025798517" depart="582.00" departLane="0" departPos="base" departSpeed="max" arrivalLane="0" arrivalPos="max">
        <route edges="edge-east-EW edge-west-EW"/>
    </vehicle>
    <vehicle id="default-flow-route-edge-south-SN_0_base-edge-east-WE_0_max-7154147728478964345---7781681476790625976--109-0.0" type="actor-default-8322116838025798517" depart="583.00" departLane="0" departPos="base" departSpeed="max" arrivalLane="0" arrivalPos="max">
        <route edges="edge-south-SN edge-east-WE"/>
    </vehicle>
    <vehicle id="default-flow-route-edge-west-WE_0_base-edge-east-WE_0_max--923470567446612579---7781681476790625976--211-0.0" type="actor-default-8322116838025798517" depart="601.00" departLane="0" departPos="base" departSpeed="max" arrivalLane="0" arrivalPos="max">
        <route edges="edge-west-WE edge-east-WE"/>
    </vehicle>
    <vehicle id="default-flow-route-edge-east-EW_0_base-edge-west-EW_0_max--6070551866706451998---7781681476790625976--1308-0.0" type="actor-default-8322116838025798517" depart="607.00" departLane="0" departPos="base" departSpeed="max" arrivalLane="0" arrivalPos="max">
        <route edges="edge-east-EW edge-west-EW"/>
    </vehicle>
    <vehicle id="default-flow-route-edge-south-SN_0_base-edge-west-EW_0_max--7635321201474816207---7781681476790625976--11-0.0" type="actor-default-8322116838025798517" depart="607.00" departLane="0" departPos="base" departSpeed="max" arrivalLane="0" arrivalPos="max">
        <route edges="edge-south-SN edge-west-EW"/>
    </vehicle>
    <vehicle id="default-flow-route-edge-east-EW_0_base-edge-west-EW_0_max--6070551866706451998---7781681476790625976--1309-0.0" type="actor-default-8322116838025798517" depart="612.00" departLane="0" departPos="base" departSpeed="max" arrivalLane="0" arrivalPos="max">
        <route edges="edge-east-EW edge-west-EW"/>
    </vehicle>
    <vehicle id="default-flow-route-edge-east-EW_0_base-edge-west-EW_0_max--6070551866706451998---7781681476790625976--1310-0.0" type="actor-default-8322116838025798517" depart="615.00" departLane="0" departPos="base" departSpeed="max" arrivalLane="0" arrivalPos="max">
        <route edges="edge-east-EW edge-west-EW"/>
    </vehicle>
    <vehicle id="default-flow-route-edge-south-SN_0_base-edge-west-EW_0_max--7635321201474816207---7781681476790625976--12-0.0" type="actor-default-8322116838025798517" depart="617.00" departLane="0" departPos="base" departSpeed="max" arrivalLane="0" arrivalPos="max">
        <route edges="edge-south-SN edge-west-EW"/>
    </vehicle>
    <vehicle id="blocker-flow-route-edge-south-SN_0_base-edge-east-WE_0_max-7154147728478964345---4084236349552295711--110-0.0" type="actor-blocker-886141202779652813" depart="639.00" departLane="0" departPos="base" departSpeed="max" arrivalLane="0" arrivalPos="max">
        <route edges="edge-south-SN edge-east-WE"/>
    </vehicle>
    <vehicle id="default-flow-route-edge-south-SN_0_base-edge-west-EW_0_max--7635321201474816207---7781681476790625976--13-0.0" type="actor-default-8322116838025798517" depart="653.00" departLane="0" departPos="base" departSpeed="max" arrivalLane="0" arrivalPos="max">
        <route edges="edge-south-SN edge-west-EW"/>
    </vehicle>
    <vehicle id="blocker-flow-route-edge-west-WE_0_base-edge-south-NS_0_max--7064645609782771451---4084236349552295711--1211-0.0" type="actor-blocker-886141202779652813" depart="658.00" departLane="0" departPos="base" departSpeed="max" arrivalLane="0" arrivalPos="max">
        <route edges="edge-west-WE edge-south-NS"/>
    </vehicle>
    <vehicle id="default-flow-route-edge-west-WE_0_base-edge-east-WE_0_max--923470567446612579---7781681476790625976--212-0.0" type="actor-default-8322116838025798517" depart="658.00" departLane="0" departPos="base" departSpeed="max" arrivalLane="0" arrivalPos="max">
        <route edges="edge-west-WE edge-east-WE"/>
    </vehicle>
    <vehicle id="default-flow-route-edge-west-WE_0_base-edge-east-WE_0_max--923470567446612579---7781681476790625976--213-0.0" type="actor-default-8322116838025798517" depart="659.00" departLane="0" departPos="base" departSpeed="max" arrivalLane="0" arrivalPos="max">
        <route edges="edge-west-WE edge-east-WE"/>
    </vehicle>
    <vehicle id="default-flow-route-edge-south-SN_0_base-edge-east-WE_0_max-7154147728478964345---7781681476790625976--111-0.0" type="actor-default-8322116838025798517" depart="669.00" departLane="0" departPos="base" departSpeed="max" arrivalLane="0" arrivalPos="max">
        <route edges="edge-south-SN edge-east-WE"/>
    </vehicle>
    <vehicle id="default-flow-route-edge-east-EW_0_base-edge-south-NS_0_max--6034614037842582270---7781681476790625976--2307-0.0" type="actor-default-8322116838025798517" depart="674.00" departLane="0" departPos="base" departSpeed="max" arrivalLane="0" arrivalPos="max">
        <route edges="edge-east-EW edge-south-NS"/>
    </vehicle>
    <vehicle id="default-flow-route-edge-west-WE_0_base-edge-east-WE_0_max--923470567446612579---7781681476790625976--214-0.0" type="actor-default-8322116838025798517" depart="688.00" departLane="0" departPos="base" departSpeed="max" arrivalLane="0" arrivalPos="max">
        <route edges="edge-west-WE edge-east-WE"/>
    </vehicle>
    <vehicle id="cautious-flow-route-edge-west-WE_0_base-edge-east-WE_0_max--923470567446612579---6517990416896892420--215-0.0" type="actor-cautious--2373361519376888597" depart="690.00" departLane="0" departPos="base" departSpeed="max" arrivalLane="0" arrivalPos="max">
        <route edges="edge-west-WE edge-east-WE"/>
    </vehicle>
    <vehicle id="default-flow-route-edge-south-SN_0_base-edge-west-EW_0_max--7635321201474816207---7781681476790625976--14-0.0" type="actor-default-8322116838025798517" depart="691.00" departLane="0" departPos="base" departSpeed="max" arrivalLane="0" arrivalPos="max">
        <route edges="edge-south-SN edge-west-EW"/>
    </vehicle>
    <vehicle id="default-flow-route-edge-east-EW_0_base-edge-west-EW_0_max--6070551866706451998---7781681476790625976--1311-0.0" type="actor-default-8322116838025798517" depart="709.00" departLane="0" departPos="base" departSpeed="max" arrivalLane="0" arrivalPos="max">
        <route edges="edge-east-EW edge-west-EW"/>
    </vehicle>
    <vehicle id="default-flow-route-edge-south-SN_0_base-edge-east-WE_0_max-7154147728478964345---7781681476790625976--112-0.0" type="actor-default-8322116838025798517" depart="728.00" departLane="0" departPos="base" departSpeed="max" arrivalLane="0" arrivalPos="max">
        <route edges="edge-south-SN edge-east-WE"/>
    </vehicle>
    <vehicle id="default-flow-route-edge-west-WE_0_base-edge-east-WE_0_max--923470567446612579---7781681476790625976--216-0.0" type="actor-default-8322116838025798517" depart="728.00" departLane="0" departPos="base" departSpeed="max" arrivalLane="0" arrivalPos="max">
        <route edges="edge-west-WE edge-east-WE"/>
    </vehicle>
    <vehicle id="blocker-flow-route-edge-west-WE_0_base-edge-south-NS_0_max--7064645609782771451---4084236349552295711--1212-0.0" type="actor-blocker-886141202779652813" depart="738.00" departLane="0" departPos="base" departSpeed="max" arrivalLane="0" arrivalPos="max">
        <route edges="edge-west-WE edge-south-NS"/>
    </vehicle>
    <vehicle id="default-flow-route-edge-south-SN_0_base-edge-east-WE_0_max-7154147728478964345---7781681476790625976--113-0.0" type="actor-default-8322116838025798517" depart="749.00" departLane="0" departPos="base" departSpeed="max" arrivalLane="0" arrivalPos="max">
        <route edges="edge-south-SN edge-east-WE"/>
    </vehicle>
    <vehicle id="blocker-flow-route-edge-east-EW_0_base-edge-south-NS_0_max--6034614037842582270---4084236349552295711--2308-0.0" type="actor-blocker-886141202779652813" depart="756.00" departLane="0" departPos="base" departSpeed="max" arrivalLane="0" arrivalPos="max">
        <route edges="edge-east-EW edge-south-NS"/>
    </vehicle>
    <vehicle id="default-flow-route-edge-west-WE_0_base-edge-east-WE_0_max--923470567446612579---7781681476790625976--217-0.0" type="actor-default-8322116838025798517" depart="763.00" departLane="0" departPos="base" departSpeed="max" arrivalLane="0" arrivalPos="max">
        <route edges="edge-west-WE edge-east-WE"/>
    </vehicle>