<?xml version="1.0" encoding="UTF-8"?>

<!-- generated on 2021-05-21 00:50:35 by Eclipse SUMO duarouter Version 1.9.2
<configuration xmlns:xsi="http://www.w3.org/2001/XMLSchema-instance" xsi:noNamespaceSchemaLocation="http://sumo.dlr.de/xsd/duarouterConfiguration.xsd">

    <input>
        <net-file value="/home/dikshant/github/SMARTS/scenarios/zoo_intersection/shifted_map-AUTOGEN.net.xml"/>
        <route-files value="/tmp/tmps0cx2ly6/trips.trips.xml"/>
    </input>

    <output>
        <output-file value="/home/dikshant/github/SMARTS/scenarios/zoo_intersection/traffic/turns-5.rou.xml"/>
        <alternatives-output value="/home/dikshant/github/SMARTS/scenarios/zoo_intersection/traffic/turns-5.rou.alt.xml"/>
    </output>

    <processing>
        <unsorted-input value="true"/>
        <repair value="true"/>
    </processing>

    <report>
        <error-log value="/home/dikshant/.smarts/_duarouter_routing/traffic/turns-5.log"/>
        <no-step-log value="true"/>
    </report>

    <random_number>
        <seed value="5"/>
    </random_number>

</configuration>
-->

<routes xmlns:xsi="http://www.w3.org/2001/XMLSchema-instance" xsi:noNamespaceSchemaLocation="http://sumo.dlr.de/xsd/routes_file.xsd">
    <vType id="actor-aggressive_car--2350987842219201382" minGap="2.50" maxSpeed="55.50" speedFactor="normc(1.00,0.20,0.20,2.00)" vClass="passenger" lcCooperative="0.1" lcImpatience="1" accel="2.6" decel="4.5" sigma="0.5"/>
    <vehicle id="aggressive_car-flow-route-edge-east-EW_0_random-edge-south-NS_0_max--1458183727768589570---8756708980285860868--0-2.0" type="actor-aggressive_car--2350987842219201382" depart="0.00" departLane="0" departPos="random" departSpeed="max" arrivalLane="0" arrivalPos="max">
        <route edges="edge-east-EW edge-south-NS"/>
    </vehicle>
    <vehicle id="aggressive_car-flow-route-edge-west-WE_0_random-edge-south-NS_0_max--5809553804229693520---8756708980285860868--1-2.0" type="actor-aggressive_car--2350987842219201382" depart="0.00" departLane="0" departPos="random" departSpeed="max" arrivalLane="0" arrivalPos="max">
        <route edges="edge-west-WE edge-south-NS"/>
    </vehicle>
    <vType id="actor-car--2479731298050493615" minGap="2.50" maxSpeed="55.50" speedFactor="normc(1.00,0.10,0.20,2.00)" vClass="passenger" accel="2.6" decel="4.5" sigma="0.5"/>
    <vehicle id="car-flow-route-edge-east-EW_0_random-edge-south-NS_0_max--1458183727768589570---8756708980285860868--0-1.0" type="actor-car--2479731298050493615" depart="0.00" departLane="0" departPos="random" departSpeed="max" arrivalLane="0" arrivalPos="max">
        <route edges="edge-east-EW edge-south-NS"/>
    </vehicle>
    <vehicle id="car-flow-route-edge-west-WE_0_random-edge-south-NS_0_max--5809553804229693520---8756708980285860868--1-1.0" type="actor-car--2479731298050493615" depart="0.00" departLane="0" departPos="random" departSpeed="max" arrivalLane="0" arrivalPos="max">
        <route edges="edge-west-WE edge-south-NS"/>
    </vehicle>
    <vType id="actor-cooperative_car-6059649744876350471" minGap="2.50" maxSpeed="55.50" speedFactor="normc(1.00,0.20,0.20,2.00)" vClass="passenger" lcCooperative="1" lcImpatience="0.1" accel="2.6" decel="4.5" sigma="0.5"/>
    <vehicle id="cooperative_car-flow-route-edge-east-EW_0_random-edge-south-NS_0_max--1458183727768589570---8756708980285860868--0-0.0" type="actor-cooperative_car-6059649744876350471" depart="0.00" departLane="0" departPos="random" departSpeed="max" arrivalLane="0" arrivalPos="max">
        <route edges="edge-east-EW edge-south-NS"/>
    </vehicle>
    <vehicle id="cooperative_car-flow-route-edge-west-WE_0_random-edge-south-NS_0_max--5809553804229693520---8756708980285860868--1-0.0" type="actor-cooperative_car-6059649744876350471" depart="0.00" departLane="0" departPos="random" departSpeed="max" arrivalLane="0" arrivalPos="max">
        <route edges="edge-west-WE edge-south-NS"/>
    </vehicle>
    <vehicle id="aggressive_car-flow-route-edge-west-WE_0_random-edge-south-NS_0_max--5809553804229693520---8756708980285860868--1-2.1" type="actor-aggressive_car--2350987842219201382" depart="101.27" departLane="0" departPos="random" departSpeed="max" arrivalLane="0" arrivalPos="max">
        <route edges="edge-west-WE edge-south-NS"/>
    </vehicle>
    <vehicle id="cooperative_car-flow-route-edge-west-WE_0_random-edge-south-NS_0_max--5809553804229693520---8756708980285860868--1-0.1" type="actor-cooperative_car-6059649744876350471" depart="130.20" departLane="0" departPos="random" departSpeed="max" arrivalLane="0" arrivalPos="max">
        <route edges="edge-west-WE edge-south-NS"/>
    </vehicle>
    <vehicle id="aggressive_car-flow-route-edge-east-EW_0_random-edge-south-NS_0_max--1458183727768589570---8756708980285860868--0-2.1" type="actor-aggressive_car--2350987842219201382" depart="156.86" departLane="0" departPos="random" departSpeed="max" arrivalLane="0" arrivalPos="max">
        <route edges="edge-east-EW edge-south-NS"/>
    </vehicle>
    <vehicle id="cooperative_car-flow-route-edge-east-EW_0_random-edge-south-NS_0_max--1458183727768589570---8756708980285860868--0-0.1" type="actor-cooperative_car-6059649744876350471" depart="201.68" departLane="0" departPos="random" departSpeed="max" arrivalLane="0" arrivalPos="max">
        <route edges="edge-east-EW edge-south-NS"/>
    </vehicle>
    <vehicle id="aggressive_car-flow-route-edge-west-WE_0_random-edge-south-NS_0_max--5809553804229693520---8756708980285860868--1-2.2" type="actor-aggressive_car--2350987842219201382" depart="202.53" departLane="0" departPos="random" departSpeed="max" arrivalLane="0" arrivalPos="max">
        <route edges="edge-west-WE edge-south-NS"/>
    </vehicle>
    <vehicle id="car-flow-route-edge-west-WE_0_random-edge-south-NS_0_max--5809553804229693520---8756708980285860868--1-1.1" type="actor-car--2479731298050493615" depart="227.85" departLane="0" departPos="random" departSpeed="max" arrivalLane="0" arrivalPos="max">
        <route edges="edge-west-WE edge-south-NS"/>
    </vehicle>
    <vehicle id="cooperative_car-flow-route-edge-west-WE_0_random-edge-south-NS_0_max--5809553804229693520---8756708980285860868--1-0.2" type="actor-cooperative_car-6059649744876350471" depart="260.40" departLane="0" departPos="random" departSpeed="max" arrivalLane="0" arrivalPos="max">
        <route edges="edge-west-WE edge-south-NS"/>
    </vehicle>
    <vehicle id="aggressive_car-flow-route-edge-west-WE_0_random-edge-south-NS_0_max--5809553804229693520---8756708980285860868--1-2.3" type="actor-aggressive_car--2350987842219201382" depart="303.80" departLane="0" departPos="random" departSpeed="max" arrivalLane="0" arrivalPos="max">
        <route edges="edge-west-WE edge-south-NS"/>
    </vehicle>
    <vehicle id="aggressive_car-flow-route-edge-east-EW_0_random-edge-south-NS_0_max--1458183727768589570---8756708980285860868--0-2.2" type="actor-aggressive_car--2350987842219201382" depart="313.73" departLane="0" departPos="random" departSpeed="max" arrivalLane="0" arrivalPos="max">
        <route edges="edge-east-EW edge-south-NS"/>
    </vehicle>
    <vehicle id="car-flow-route-edge-east-EW_0_random-edge-south-NS_0_max--1458183727768589570---8756708980285860868--0-1.1" type="actor-car--2479731298050493615" depart="352.94" departLane="0" departPos="random" departSpeed="max" arrivalLane="0" arrivalPos="max">
        <route edges="edge-east-EW edge-south-NS"/>
    </vehicle>
    <vehicle id="cooperative_car-flow-route-edge-west-WE_0_random-edge-south-NS_0_max--5809553804229693520---8756708980285860868--1-0.3" type="actor-cooperative_car-6059649744876350471" depart="390.60" departLane="0" departPos="random" departSpeed="max" arrivalLane="0" arrivalPos="max">
        <route edges="edge-west-WE edge-south-NS"/>
    </vehicle>
    <vehicle id="cooperative_car-flow-route-edge-east-EW_0_random-edge-south-NS_0_max--1458183727768589570---8756708980285860868--0-0.2" type="actor-cooperative_car-6059649744876350471" depart="403.36" departLane="0" departPos="random" departSpeed="max" arrivalLane="0" arrivalPos="max">
        <route edges="edge-east-EW edge-south-NS"/>
    </vehicle>
    <vehicle id="aggressive_car-flow-route-edge-west-WE_0_random-edge-south-NS_0_max--5809553804229693520---8756708980285860868--1-2.4" type="actor-aggressive_car--2350987842219201382" depart="405.06" departLane="0" departPos="random" departSpeed="max" arrivalLane="0" arrivalPos="max">
        <route edges="edge-west-WE edge-south-NS"/>
    </vehicle>
    <vehicle id="car-flow-route-edge-west-WE_0_random-edge-south-NS_0_max--5809553804229693520---8756708980285860868--1-1.2" type="actor-car--2479731298050493615" depart="455.70" departLane="0" departPos="random" departSpeed="max" arrivalLane="0" arrivalPos="max">
        <route edges="edge-west-WE edge-south-NS"/>
    </vehicle>
    <vehicle id="aggressive_car-flow-route-edge-east-EW_0_random-edge-south-NS_0_max--1458183727768589570---8756708980285860868--0-2.3" type="actor-aggressive_car--2350987842219201382" depart="470.59" departLane="0" departPos="random" departSpeed="max" arrivalLane="0" arrivalPos="max">
        <route edges="edge-east-EW edge-south-NS"/>
    </vehicle>
    <vehicle id="aggressive_car-flow-route-edge-west-WE_0_random-edge-south-NS_0_max--5809553804229693520---8756708980285860868--1-2.5" type="actor-aggressive_car--2350987842219201382" depart="506.33" departLane="0" departPos="random" departSpeed="max" arrivalLane="0" arrivalPos="max">
        <route edges="edge-west-WE edge-south-NS"/>
    </vehicle>
    <vehicle id="cooperative_car-flow-route-edge-west-WE_0_random-edge-south-NS_0_max--5809553804229693520---8756708980285860868--1-0.4" type="actor-cooperative_car-6059649744876350471" depart="520.80" departLane="0" departPos="random" departSpeed="max" arrivalLane="0" arrivalPos="max">
        <route edges="edge-west-WE edge-south-NS"/>
    </vehicle>
    <vehicle id="cooperative_car-flow-route-edge-east-EW_0_random-edge-south-NS_0_max--1458183727768589570---8756708980285860868--0-0.3" type="actor-cooperative_car-6059649744876350471" depart="605.04" departLane="0" departPos="random" departSpeed="max" arrivalLane="0" arrivalPos="max">
        <route edges="edge-east-EW edge-south-NS"/>
    </vehicle>
    <vehicle id="aggressive_car-flow-route-edge-west-WE_0_random-edge-south-NS_0_max--5809553804229693520---8756708980285860868--1-2.6" type="actor-aggressive_car--2350987842219201382" depart="607.60" departLane="0" departPos="random" departSpeed="max" arrivalLane="0" arrivalPos="max">
        <route edges="edge-west-WE edge-south-NS"/>
    </vehicle>
    <vehicle id="aggressive_car-flow-route-edge-east-EW_0_random-edge-south-NS_0_max--1458183727768589570---8756708980285860868--0-2.4" type="actor-aggressive_car--2350987842219201382" depart="627.45" departLane="0" departPos="random" departSpeed="max" arrivalLane="0" arrivalPos="max">
        <route edges="edge-east-EW edge-south-NS"/>
    </vehicle>
    <vehicle id="cooperative_car-flow-route-edge-west-WE_0_random-edge-south-NS_0_max--5809553804229693520---8756708980285860868--1-0.5" type="actor-cooperative_car-6059649744876350471" depart="651.00" departLane="0" departPos="random" departSpeed="max" arrivalLane="0" arrivalPos="max">
        <route edges="edge-west-WE edge-south-NS"/>
    </vehicle>
    <vehicle id="car-flow-route-edge-west-WE_0_random-edge-south-NS_0_max--5809553804229693520---8756708980285860868--1-1.3" type="actor-car--2479731298050493615" depart="683.54" departLane="0" departPos="random" departSpeed="max" arrivalLane="0" arrivalPos="max">
        <route edges="edge-west-WE edge-south-NS"/>
    </vehicle>
    <vehicle id="car-flow-route-edge-east-EW_0_random-edge-south-NS_0_max--1458183727768589570---8756708980285860868--0-1.2" type="actor-car--2479731298050493615" depart="705.88" departLane="0" departPos="random" departSpeed="max" arrivalLane="0" arrivalPos="max">
        <route edges="edge-east-EW edge-south-NS"/>
    </vehicle>
    <vehicle id="aggressive_car-flow-route-edge-west-WE_0_random-edge-south-NS_0_max--5809553804229693520---8756708980285860868--1-2.7" type="actor-aggressive_car--2350987842219201382" depart="708.86" departLane="0" departPos="random" departSpeed="max" arrivalLane="0" arrivalPos="max">
        <route edges="edge-west-WE edge-south-NS"/>
    </vehicle>
    <vehicle id="cooperative_car-flow-route-edge-west-WE_0_random-edge-south-NS_0_max--5809553804229693520---8756708980285860868--1-0.6" type="actor-cooperative_car-6059649744876350471" depart="781.19" departLane="0" departPos="random" departSpeed="max" arrivalLane="0" arrivalPos="max">
        <route edges="edge-west-WE edge-south-NS"/>
    </vehicle>
    <vehicle id="aggressive_car-flow-route-edge-east-EW_0_random-edge-south-NS_0_max--1458183727768589570---8756708980285860868--0-2.5" type="actor-aggressive_car--2350987842219201382" depart="784.32" departLane="0" departPos="random" departSpeed="max" arrivalLane="0" arrivalPos="max">
        <route edges="edge-east-EW edge-south-NS"/>
    </vehicle>
    <vehicle id="cooperative_car-flow-route-edge-east-EW_0_random-edge-south-NS_0_max--1458183727768589570---8756708980285860868--0-0.4" type="actor-cooperative_car-6059649744876350471" depart="806.72" departLane="0" departPos="random" departSpeed="max" arrivalLane="0" arrivalPos="max">
        <route edges="edge-east-EW edge-south-NS"/>
    </vehicle>
    <vehicle id="aggressive_car-flow-route-edge-west-WE_0_random-edge-south-NS_0_max--5809553804229693520---8756708980285860868--1-2.8" type="actor-aggressive_car--2350987842219201382" depart="810.13" departLane="0" departPos="random" departSpeed="max" arrivalLane="0" arrivalPos="max">
        <route edges="edge-west-WE edge-south-NS"/>
    </vehicle>
    <vehicle id="car-flow-route-edge-west-WE_0_random-edge-south-NS_0_max--5809553804229693520---8756708980285860868--1-1.4" type="actor-car--2479731298050493615" depart="911.39" departLane="0" departPos="random" departSpeed="max" arrivalLane="0" arrivalPos="max">
        <route edges="edge-west-WE edge-south-NS"/>
    </vehicle>
    <vehicle id="cooperative_car-flow-route-edge-west-WE_0_random-edge-south-NS_0_max--5809553804229693520---8756708980285860868--1-0.7" type="actor-cooperative_car-6059649744876350471" depart="911.39" departLane="0" departPos="random" departSpeed="max" arrivalLane="0" arrivalPos="max">
        <route edges="edge-west-WE edge-south-NS"/>
    </vehicle>
    <vehicle id="aggressive_car-flow-route-edge-west-WE_0_random-edge-south-NS_0_max--5809553804229693520---8756708980285860868--1-2.9" type="actor-aggressive_car--2350987842219201382" depart="911.39" departLane="0" departPos="random" departSpeed="max" arrivalLane="0" arrivalPos="max">
        <route edges="edge-west-WE edge-south-NS"/>
    </vehicle>
    <vehicle id="aggressive_car-flow-route-edge-east-EW_0_random-edge-south-NS_0_max--1458183727768589570---8756708980285860868--0-2.6" type="actor-aggressive_car--2350987842219201382" depart="941.18" departLane="0" departPos="random" departSpeed="max" arrivalLane="0" arrivalPos="max">
        <route edges="edge-east-EW edge-south-NS"/>
    </vehicle>
    <vehicle id="cooperative_car-flow-route-edge-east-EW_0_random-edge-south-NS_0_max--1458183727768589570---8756708980285860868--0-0.5" type="actor-cooperative_car-6059649744876350471" depart="1008.41" departLane="0" departPos="random" departSpeed="max" arrivalLane="0" arrivalPos="max">
        <route edges="edge-east-EW edge-south-NS"/>
    </vehicle>
    <vehicle id="aggressive_car-flow-route-edge-west-WE_0_random-edge-south-NS_0_max--5809553804229693520---8756708980285860868--1-2.10" type="actor-aggressive_car--2350987842219201382" depart="1012.66" departLane="0" departPos="random" departSpeed="max" arrivalLane="0" arrivalPos="max">
        <route edges="edge-west-WE edge-south-NS"/>
    </vehicle>
    <vehicle id="cooperative_car-flow-route-edge-west-WE_0_random-edge-south-NS_0_max--5809553804229693520---8756708980285860868--1-0.8" type="actor-cooperative_car-6059649744876350471" depart="1041.59" departLane="0" departPos="random" departSpeed="max" arrivalLane="0" arrivalPos="max">
        <route edges="edge-west-WE edge-south-NS"/>
    </vehicle>
    <vehicle id="car-flow-route-edge-east-EW_0_random-edge-south-NS_0_max--1458183727768589570---8756708980285860868--0-1.3" type="actor-car--2479731298050493615" depart="1058.82" departLane="0" departPos="random" departSpeed="max" arrivalLane="0" arrivalPos="max">
        <route edges="edge-east-EW edge-south-NS"/>
    </vehicle>
    <vehicle id="aggressive_car-flow-route-edge-east-EW_0_random-edge-south-NS_0_max--1458183727768589570---8756708980285860868--0-2.7" type="actor-aggressive_car--2350987842219201382" depart="1098.04" departLane="0" departPos="random" departSpeed="max" arrivalLane="0" arrivalPos="max">
        <route edges="edge-east-EW edge-south-NS"/>
    </vehicle>
    <vehicle id="aggressive_car-flow-route-edge-west-WE_0_random-edge-south-NS_0_max--5809553804229693520---8756708980285860868--1-2.11" type="actor-aggressive_car--2350987842219201382" depart="1113.93" departLane="0" departPos="random" departSpeed="max" arrivalLane="0" arrivalPos="max">
        <route edges="edge-west-WE edge-south-NS"/>
    </vehicle>
    <vehicle id="car-flow-route-edge-west-WE_0_random-edge-south-NS_0_max--5809553804229693520---8756708980285860868--1-1.5" type="actor-car--2479731298050493615" depart="1139.24" departLane="0" departPos="random" departSpeed="max" arrivalLane="0" arrivalPos="max">
        <route edges="edge-west-WE edge-south-NS"/>
    </vehicle>
    <vehicle id="cooperative_car-flow-route-edge-west-WE_0_random-edge-south-NS_0_max--5809553804229693520---8756708980285860868--1-0.9" type="actor-cooperative_car-6059649744876350471" depart="1171.79" departLane="0" departPos="random" departSpeed="max" arrivalLane="0" arrivalPos="max">
        <route edges="edge-west-WE edge-south-NS"/>
    </vehicle>
    <vehicle id="cooperative_car-flow-route-edge-east-EW_0_random-edge-south-NS_0_max--1458183727768589570---8756708980285860868--0-0.6" type="actor-cooperative_car-6059649744876350471" depart="1210.09" departLane="0" departPos="random" departSpeed="max" arrivalLane="0" arrivalPos="max">
        <route edges="edge-east-EW edge-south-NS"/>
    </vehicle>
    <vehicle id="aggressive_car-flow-route-edge-west-WE_0_random-edge-south-NS_0_max--5809553804229693520---8756708980285860868--1-2.12" type="actor-aggressive_car--2350987842219201382" depart="1215.19" departLane="0" departPos="random" departSpeed="max" arrivalLane="0" arrivalPos="max">
        <route edges="edge-west-WE edge-south-NS"/>
    </vehicle>
    <vehicle id="aggressive_car-flow-route-edge-east-EW_0_random-edge-south-NS_0_max--1458183727768589570---8756708980285860868--0-2.8" type="actor-aggressive_car--2350987842219201382" depart="1254.90" departLane="0" departPos="random" departSpeed="max" arrivalLane="0" arrivalPos="max">
        <route edges="edge-east-EW edge-south-NS"/>
    </vehicle>
    <vehicle id="cooperative_car-flow-route-edge-west-WE_0_random-edge-south-NS_0_max--5809553804229693520---8756708980285860868--1-0.10" type="actor-cooperative_car-6059649744876350471" depart="1301.99" departLane="0" departPos="random" departSpeed="max" arrivalLane="0" arrivalPos="max">
        <route edges="edge-west-WE edge-south-NS"/>
    </vehicle>
    <vehicle id="aggressive_car-flow-route-edge-west-WE_0_random-edge-south-NS_0_max--5809553804229693520---8756708980285860868--1-2.13" type="actor-aggressive_car--2350987842219201382" depart="1316.46" departLane="0" departPos="random" departSpeed="max" arrivalLane="0" arrivalPos="max">
        <route edges="edge-west-WE edge-south-NS"/>
    </vehicle>
    <vehicle id="car-flow-route-edge-west-WE_0_random-edge-south-NS_0_max--5809553804229693520---8756708980285860868--1-1.6" type="actor-car--2479731298050493615" depart="1367.09" departLane="0" departPos="random" departSpeed="max" arrivalLane="0" arrivalPos="max">
        <route edges="edge-west-WE edge-south-NS"/>
    </vehicle>
    <vehicle id="car-flow-route-edge-east-EW_0_random-edge-south-NS_0_max--1458183727768589570---8756708980285860868--0-1.4" type="actor-car--2479731298050493615" depart="1411.76" departLane="0" departPos="random" departSpeed="max" arrivalLane="0" arrivalPos="max">
        <route edges="edge-east-EW edge-south-NS"/>
    </vehicle>
    <vehicle id="aggressive_car-flow-route-edge-east-EW_0_random-edge-south-NS_0_max--1458183727768589570---8756708980285860868--0-2.9" type="actor-aggressive_car--2350987842219201382" depart="1411.77" departLane="0" departPos="random" departSpeed="max" arrivalLane="0" arrivalPos="max">
        <route edges="edge-east-EW edge-south-NS"/>
    </vehicle>
    <vehicle id="cooperative_car-flow-route-edge-east-EW_0_random-edge-south-NS_0_max--1458183727768589570---8756708980285860868--0-0.7" type="actor-cooperative_car-6059649744876350471" depart="1411.77" departLane="0" departPos="random" departSpeed="max" arrivalLane="0" arrivalPos="max">
        <route edges="edge-east-EW edge-south-NS"/>
    </vehicle>
    <vehicle id="aggressive_car-flow-route-edge-west-WE_0_random-edge-south-NS_0_max--5809553804229693520---8756708980285860868--1-2.14" type="actor-aggressive_car--2350987842219201382" depart="1417.72" departLane="0" departPos="random" departSpeed="max" arrivalLane="0" arrivalPos="max">
        <route edges="edge-west-WE edge-south-NS"/>
    </vehicle>
    <vehicle id="cooperative_car-flow-route-edge-west-WE_0_random-edge-south-NS_0_max--5809553804229693520---8756708980285860868--1-0.11" type="actor-cooperative_car-6059649744876350471" depart="1432.19" departLane="0" departPos="random" departSpeed="max" arrivalLane="0" arrivalPos="max">
        <route edges="edge-west-WE edge-south-NS"/>
    </vehicle>
    <vehicle id="aggressive_car-flow-route-edge-west-WE_0_random-edge-south-NS_0_max--5809553804229693520---8756708980285860868--1-2.15" type="actor-aggressive_car--2350987842219201382" depart="1518.99" departLane="0" departPos="random" departSpeed="max" arrivalLane="0" arrivalPos="max">
        <route edges="edge-west-WE edge-south-NS"/>
    </vehicle>
    <vehicle id="cooperative_car-flow-route-edge-west-WE_0_random-edge-south-NS_0_max--5809553804229693520---8756708980285860868--1-0.12" type="actor-cooperative_car-6059649744876350471" depart="1562.39" departLane="0" departPos="random" departSpeed="max" arrivalLane="0" arrivalPos="max">
        <route edges="edge-west-WE edge-south-NS"/>
    </vehicle>
    <vehicle id="aggressive_car-flow-route-edge-east-EW_0_random-edge-south-NS_0_max--1458183727768589570---8756708980285860868--0-2.10" type="actor-aggressive_car--2350987842219201382" depart="1568.63" departLane="0" departPos="random" departSpeed="max" arrivalLane="0" arrivalPos="max">
        <route edges="edge-east-EW edge-south-NS"/>
    </vehicle>
    <vehicle id="car-flow-route-edge-west-WE_0_random-edge-south-NS_0_max--5809553804229693520---8756708980285860868--1-1.7" type="actor-car--2479731298050493615" depart="1594.94" departLane="0" departPos="random" departSpeed="max" arrivalLane="0" arrivalPos="max">
        <route edges="edge-west-WE edge-south-NS"/>
    </vehicle>
    <vehicle id="cooperative_car-flow-route-edge-east-EW_0_random-edge-south-NS_0_max--1458183727768589570---8756708980285860868--0-0.8" type="actor-cooperative_car-6059649744876350471" depart="1613.45" departLane="0" departPos="random" departSpeed="max" arrivalLane="0" arrivalPos="max">
        <route edges="edge-east-EW edge-south-NS"/>
    </vehicle>
    <vehicle id="aggressive_car-flow-route-edge-west-WE_0_random-edge-south-NS_0_max--5809553804229693520---8756708980285860868--1-2.16" type="actor-aggressive_car--2350987842219201382" depart="1620.26" departLane="0" departPos="random" departSpeed="max" arrivalLane="0" arrivalPos="max">
        <route edges="edge-west-WE edge-south-NS"/>
    </vehicle>
    <vehicle id="cooperative_car-flow-route-edge-west-WE_0_random-edge-south-NS_0_max--5809553804229693520---8756708980285860868--1-0.13" type="actor-cooperative_car-6059649744876350471" depart="1692.59" departLane="0" departPos="random" departSpeed="max" arrivalLane="0" arrivalPos="max">
        <route edges="edge-west-WE edge-south-NS"/>
    </vehicle>
    <vehicle id="aggressive_car-flow-route-edge-west-WE_0_random-edge-south-NS_0_max--5809553804229693520---8756708980285860868--1-2.17" type="actor-aggressive_car--2350987842219201382" depart="1721.52" departLane="0" departPos="random" departSpeed="max" arrivalLane="0" arrivalPos="max">
        <route edges="edge-west-WE edge-south-NS"/>
    </vehicle>
    <vehicle id="aggressive_car-flow-route-edge-east-EW_0_random-edge-south-NS_0_max--1458183727768589570---8756708980285860868--0-2.11" type="actor-aggressive_car--2350987842219201382" depart="1725.49" departLane="0" departPos="random" departSpeed="max" arrivalLane="0" arrivalPos="max">
        <route edges="edge-east-EW edge-south-NS"/>
    </vehicle>
    <vehicle id="car-flow-route-edge-east-EW_0_random-edge-south-NS_0_max--1458183727768589570---8756708980285860868--0-1.5" type="actor-car--2479731298050493615" depart="1764.71" departLane="0" departPos="random" departSpeed="max" arrivalLane="0" arrivalPos="max">
        <route edges="edge-east-EW edge-south-NS"/>
    </vehicle>
    <vehicle id="cooperative_car-flow-route-edge-east-EW_0_random-edge-south-NS_0_max--1458183727768589570---8756708980285860868--0-0.9" type="actor-cooperative_car-6059649744876350471" depart="1815.13" departLane="0" departPos="random" departSpeed="max" arrivalLane="0" arrivalPos="max">
        <route edges="edge-east-EW edge-south-NS"/>
    </vehicle>
    <vehicle id="car-flow-route-edge-west-WE_0_random-edge-south-NS_0_max--5809553804229693520---8756708980285860868--1-1.8" type="actor-car--2479731298050493615" depart="1822.78" departLane="0" departPos="random" departSpeed="max" arrivalLane="0" arrivalPos="max">
        <route edges="edge-west-WE edge-south-NS"/>
    </vehicle>
    <vehicle id="cooperative_car-flow-route-edge-west-WE_0_random-edge-south-NS_0_max--5809553804229693520---8756708980285860868--1-0.14" type="actor-cooperative_car-6059649744876350471" depart="1822.79" departLane="0" departPos="random" departSpeed="max" arrivalLane="0" arrivalPos="max">
        <route edges="edge-west-WE edge-south-NS"/>
    </vehicle>
    <vehicle id="aggressive_car-flow-route-edge-west-WE_0_random-edge-south-NS_0_max--5809553804229693520---8756708980285860868--1-2.18" type="actor-aggressive_car--2350987842219201382" depart="1822.79" departLane="0" departPos="random" departSpeed="max" arrivalLane="0" arrivalPos="max">
        <route edges="edge-west-WE edge-south-NS"/>
    </vehicle>
    <vehicle id="aggressive_car-flow-route-edge-east-EW_0_random-edge-south-NS_0_max--1458183727768589570---8756708980285860868--0-2.12" type="actor-aggressive_car--2350987842219201382" depart="1882.36" departLane="0" departPos="random" departSpeed="max" arrivalLane="0" arrivalPos="max">
        <route edges="edge-east-EW edge-south-NS"/>
    </vehicle>
    <vehicle id="aggressive_car-flow-route-edge-west-WE_0_random-edge-south-NS_0_max--5809553804229693520---8756708980285860868--1-2.19" type="actor-aggressive_car--2350987842219201382" depart="1924.05" departLane="0" departPos="random" departSpeed="max" arrivalLane="0" arrivalPos="max">
        <route edges="edge-west-WE edge-south-NS"/>
    </vehicle>
    <vehicle id="cooperative_car-flow-route-edge-west-WE_0_random-edge-south-NS_0_max--5809553804229693520---8756708980285860868--1-0.15" type="actor-cooperative_car-6059649744876350471" depart="1952.99" departLane="0" departPos="random" departSpeed="max" arrivalLane="0" arrivalPos="max">
        <route edges="edge-west-WE edge-south-NS"/>
    </vehicle>
    <vehicle id="cooperative_car-flow-route-edge-east-EW_0_random-edge-south-NS_0_max--1458183727768589570---8756708980285860868--0-0.10" type="actor-cooperative_car-6059649744876350471" depart="2016.81" departLane="0" departPos="random" departSpeed="max" arrivalLane="0" arrivalPos="max">
        <route edges="edge-east-EW edge-south-NS"/>
    </vehicle>
    <vehicle id="aggressive_car-flow-route-edge-west-WE_0_random-edge-south-NS_0_max--5809553804229693520---8756708980285860868--1-2.20" type="actor-aggressive_car--2350987842219201382" depart="2025.32" departLane="0" departPos="random" departSpeed="max" arrivalLane="0" arrivalPos="max">
        <route edges="edge-west-WE edge-south-NS"/>
    </vehicle>
    <vehicle id="aggressive_car-flow-route-edge-east-EW_0_random-edge-south-NS_0_max--1458183727768589570---8756708980285860868--0-2.13" type="actor-aggressive_car--2350987842219201382" depart="2039.22" departLane="0" departPos="random" departSpeed="max" arrivalLane="0" arrivalPos="max">
        <route edges="edge-east-EW edge-south-NS"/>
    </vehicle>
    <vehicle id="car-flow-route-edge-west-WE_0_random-edge-south-NS_0_max--5809553804229693520---8756708980285860868--1-1.9" type="actor-car--2479731298050493615" depart="2050.63" departLane="0" departPos="random" departSpeed="max" arrivalLane="0" arrivalPos="max">
        <route edges="edge-west-WE edge-south-NS"/>
    </vehicle>
    <vehicle id="cooperative_car-flow-route-edge-west-WE_0_random-edge-south-NS_0_max--5809553804229693520---8756708980285860868--1-0.16" type="actor-cooperative_car-6059649744876350471" depart="2083.18" departLane="0" departPos="random" departSpeed="max" arrivalLane="0" arrivalPos="max">
        <route edges="edge-west-WE edge-south-NS"/>
    </vehicle>
    <vehicle id="car-flow-route-edge-east-EW_0_random-edge-south-NS_0_max--1458183727768589570---8756708980285860868--0-1.6" type="actor-car--2479731298050493615" depart="2117.65" departLane="0" departPos="random" departSpeed="max" arrivalLane="0" arrivalPos="max">
        <route edges="edge-east-EW edge-south-NS"/>
    </vehicle>