<?xml version="1.0" encoding="UTF-8"?>

<!-- generated on 2021-05-21 00:45:28 by Eclipse SUMO netconvert Version 1.9.2
<configuration xmlns:xsi="http://www.w3.org/2001/XMLSchema-instance" xsi:noNamespaceSchemaLocation="http://sumo.dlr.de/xsd/netconvertConfiguration.xsd">

    <input>
        <sumo-net-file value="scenarios/intersections/6lane/map.net.xml"/>
    </input>

    <output>
        <output-file value="scenarios/intersections/6lane/shifted_map-AUTOGEN.net.xml"/>
    </output>

    <processing>
        <geometry.min-radius.fix.railways value="false"/>
        <geometry.max-grade.fix value="false"/>
        <offset.disable-normalization value="false"/>
        <lefthand value="false"/>
    </processing>

    <junctions>
        <no-turnarounds value="true"/>
        <junctions.corner-detail value="5"/>
        <junctions.limit-turn-speed value="5.5"/>
        <rectangular-lane-cut value="false"/>
    </junctions>

    <pedestrian>
        <walkingareas value="false"/>
    </pedestrian>

    <report>
        <aggregate-warnings value="5"/>
    </report>

</configuration>
-->

<net version="1.9" junctionCornerDetail="5" limitTurnSpeed="5.50" xmlns:xsi="http://www.w3.org/2001/XMLSchema-instance" xsi:noNamespaceSchemaLocation="http://sumo.dlr.de/xsd/net_file.xsd">

    <location netOffset="-630902.85,-4856003.12" convBoundary="0.00,0.00,200.00,140.00" origBoundary="-79.371708,43.846679,-79.369237,43.847436" projParameter="+proj=utm +zone=17 +ellps=WGS84 +datum=WGS84 +units=m +no_defs"/>

    <type id="highway.bridleway" priority="1" numLanes="1" speed="2.78" allow="pedestrian" oneway="1" width="2.00"/>
    <type id="highway.bus_guideway" priority="1" numLanes="1" speed="27.78" allow="bus" oneway="1"/>
    <type id="highway.cycleway" priority="1" numLanes="1" speed="8.33" allow="bicycle" oneway="0" width="1.00"/>
    <type id="highway.footway" priority="1" numLanes="1" speed="2.78" allow="pedestrian" oneway="1" width="2.00"/>
    <type id="highway.ford" priority="1" numLanes="1" speed="2.78" allow="army" oneway="0"/>
    <type id="highway.living_street" priority="2" numLanes="1" speed="2.78" disallow="tram rail_urban rail rail_electric ship" oneway="0"/>
    <type id="highway.motorway" priority="14" numLanes="2" speed="39.44" allow="private emergency authority army vip passenger hov taxi bus coach delivery truck trailer motorcycle evehicle custom1 custom2" oneway="1"/>
    <type id="highway.motorway_link" priority="9" numLanes="1" speed="22.22" allow="private emergency authority army vip passenger hov taxi bus coach delivery truck trailer motorcycle evehicle custom1 custom2" oneway="1"/>
    <type id="highway.path" priority="1" numLanes="1" speed="2.78" allow="pedestrian bicycle" oneway="1" width="2.00"/>
    <type id="highway.pedestrian" priority="1" numLanes="1" speed="2.78" allow="pedestrian" oneway="1" width="2.00"/>
    <type id="highway.primary" priority="12" numLanes="2" speed="27.78" disallow="tram rail_urban rail rail_electric ship" oneway="0"/>
    <type id="highway.primary_link" priority="7" numLanes="1" speed="22.22" disallow="tram rail_urban rail rail_electric ship" oneway="0"/>
    <type id="highway.raceway" priority="15" numLanes="2" speed="83.33" allow="vip" oneway="0"/>
    <type id="highway.residential" priority="3" numLanes="1" speed="13.89" disallow="tram rail_urban rail rail_electric ship" oneway="0"/>
    <type id="highway.secondary" priority="11" numLanes="2" speed="27.78" disallow="tram rail_urban rail rail_electric ship" oneway="0"/>
    <type id="highway.secondary_link" priority="6" numLanes="1" speed="22.22" disallow="tram rail_urban rail rail_electric ship" oneway="0"/>
    <type id="highway.service" priority="1" numLanes="1" speed="5.56" allow="pedestrian delivery bicycle" oneway="0"/>
    <type id="highway.stairs" priority="1" numLanes="1" speed="1.39" allow="pedestrian" oneway="1" width="2.00"/>
    <type id="highway.step" priority="1" numLanes="1" speed="1.39" allow="pedestrian" oneway="1" width="2.00"/>
    <type id="highway.steps" priority="1" numLanes="1" speed="1.39" allow="pedestrian" oneway="1" width="2.00"/>
    <type id="highway.tertiary" priority="10" numLanes="1" speed="22.22" disallow="tram rail_urban rail rail_electric ship" oneway="0"/>
    <type id="highway.tertiary_link" priority="5" numLanes="1" speed="22.22" disallow="tram rail_urban rail rail_electric ship" oneway="0"/>
    <type id="highway.track" priority="1" numLanes="1" speed="5.56" disallow="tram rail_urban rail rail_electric ship" oneway="0"/>
    <type id="highway.trunk" priority="13" numLanes="2" speed="27.78" disallow="pedestrian bicycle tram rail_urban rail rail_electric ship" oneway="0"/>
    <type id="highway.trunk_link" priority="8" numLanes="1" speed="22.22" disallow="pedestrian bicycle tram rail_urban rail rail_electric ship" oneway="0"/>
    <type id="highway.unclassified" priority="4" numLanes="1" speed="13.89" disallow="tram rail_urban rail rail_electric ship" oneway="0"/>
    <type id="highway.unsurfaced" priority="1" numLanes="1" speed="8.33" disallow="tram rail_urban rail rail_electric ship" oneway="0"/>
    <type id="railway.light_rail" priority="19" numLanes="1" speed="27.78" allow="rail_urban" oneway="1"/>
    <type id="railway.preserved" priority="16" numLanes="1" speed="27.78" allow="rail" oneway="1"/>
    <type id="railway.rail" priority="20" numLanes="1" speed="83.33" allow="rail rail_electric" oneway="1"/>
    <type id="railway.subway" priority="18" numLanes="1" speed="27.78" allow="rail_urban" oneway="1"/>
    <type id="railway.tram" priority="17" numLanes="1" speed="13.89" allow="tram" oneway="1"/>

    <edge id=":junction-intersection_0" function="internal">
        <lane id=":junction-intersection_0_0" index="0" speed="5.04" length="5.00" shape="122.00,81.10 121.81,79.74 121.22,78.78 120.26,78.19 118.90,78.00"/>
    </edge>
    <edge id=":junction-intersection_1" function="internal">
        <lane id=":junction-intersection_1_0" index="0" speed="50.00" length="22.20" shape="122.00,81.10 122.00,58.90"/>
        <lane id=":junction-intersection_1_1" index="1" speed="50.00" length="22.20" shape="125.20,81.10 125.20,58.90"/>
        <lane id=":junction-intersection_1_2" index="2" speed="50.00" length="22.20" shape="128.40,81.10 128.40,58.90"/>
    </edge>
    <edge id=":junction-intersection_4" function="internal">
        <lane id=":junction-intersection_4_0" index="0" speed="9.51" length="7.18" shape="128.40,81.10 129.19,75.54 130.00,74.20"/>
    </edge>
    <edge id=":junction-intersection_20" function="internal">
        <lane id=":junction-intersection_20_0" index="0" speed="9.51" length="13.30" shape="130.00,74.20 131.58,71.58 135.54,69.19 141.10,68.40"/>
    </edge>
    <edge id=":junction-intersection_5" function="internal">
        <lane id=":junction-intersection_5_0" index="0" speed="5.04" length="5.00" shape="141.10,78.00 139.74,78.19 138.78,78.78 138.19,79.74 138.00,81.10"/>
    </edge>
    <edge id=":junction-intersection_6" function="internal">
        <lane id=":junction-intersection_6_0" index="0" speed="50.00" length="22.20" shape="141.10,78.00 118.90,78.00"/>
        <lane id=":junction-intersection_6_1" index="1" speed="50.00" length="22.20" shape="141.10,74.80 118.90,74.80"/>
        <lane id=":junction-intersection_6_2" index="2" speed="50.00" length="22.20" shape="141.10,71.60 118.90,71.60"/>
    </edge>
    <edge id=":junction-intersection_9" function="internal">
        <lane id=":junction-intersection_9_0" index="0" speed="9.51" length="20.48" shape="141.10,71.60 135.54,70.81 131.58,68.42 129.19,64.46 128.40,58.90"/>
    </edge>
    <edge id=":junction-intersection_10" function="internal">
        <lane id=":junction-intersection_10_0" index="0" speed="5.04" length="5.00" shape="138.00,58.90 138.19,60.26 138.78,61.23 139.74,61.81 141.10,62.00"/>
    </edge>
    <edge id=":junction-intersection_11" function="internal">
        <lane id=":junction-intersection_11_0" index="0" speed="50.00" length="22.20" shape="138.00,58.90 138.00,81.10"/>
        <lane id=":junction-intersection_11_1" index="1" speed="50.00" length="22.20" shape="134.80,58.90 134.80,81.10"/>
        <lane id=":junction-intersection_11_2" index="2" speed="50.00" length="22.20" shape="131.60,58.90 131.60,81.10"/>
    </edge>
    <edge id=":junction-intersection_14" function="internal">
        <lane id=":junction-intersection_14_0" index="0" speed="9.51" length="7.18" shape="131.60,58.90 130.81,64.46 130.00,65.80"/>
    </edge>
    <edge id=":junction-intersection_21" function="internal">
        <lane id=":junction-intersection_21_0" index="0" speed="9.51" length="13.30" shape="130.00,65.80 128.42,68.42 124.46,70.81 118.90,71.60"/>
    </edge>
    <edge id=":junction-intersection_15" function="internal">
        <lane id=":junction-intersection_15_0" index="0" speed="5.04" length="5.00" shape="118.90,62.00 120.26,61.81 121.22,61.23 121.81,60.26 122.00,58.90"/>
    </edge>
    <edge id=":junction-intersection_16" function="internal">
        <lane id=":junction-intersection_16_0" index="0" speed="50.00" length="22.20" shape="118.90,62.00 141.10,62.00"/>
        <lane id=":junction-intersection_16_1" index="1" speed="50.00" length="22.20" shape="118.90,65.20 141.10,65.20"/>
        <lane id=":junction-intersection_16_2" index="2" speed="50.00" length="22.20" shape="118.90,68.40 141.10,68.40"/>
    </edge>
    <edge id=":junction-intersection_19" function="internal">
        <lane id=":junction-intersection_19_0" index="0" speed="9.51" length="20.48" shape="118.90,68.40 124.46,69.19 128.42,71.58 130.81,75.54 131.60,81.10"/>
    </edge>

    <edge id="edge-east-EW" from="junction-east" to="junction-intersection" priority="-1">
        <lane id="edge-east-EW_0" index="0" speed="50.00" length="58.90" shape="200.00,78.00 141.10,78.00"/>
        <lane id="edge-east-EW_1" index="1" speed="50.00" length="58.90" shape="200.00,74.80 141.10,74.80"/>
        <lane id="edge-east-EW_2" index="2" speed="50.00" length="58.90" shape="200.00,71.60 141.10,71.60"/>
    </edge>
    <edge id="edge-east-WE" from="junction-intersection" to="junction-east" priority="-1">
        <lane id="edge-east-WE_0" index="0" speed="50.00" length="58.90" shape="141.10,62.00 200.00,62.00"/>
        <lane id="edge-east-WE_1" index="1" speed="50.00" length="58.90" shape="141.10,65.20 200.00,65.20"/>
        <lane id="edge-east-WE_2" index="2" speed="50.00" length="58.90" shape="141.10,68.40 200.00,68.40"/>
    </edge>
    <edge id="edge-north-NS" from="junction-north" to="junction-intersection" priority="-1">
        <lane id="edge-north-NS_0" index="0" speed="50.00" length="58.90" shape="122.00,140.00 122.00,81.10"/>
        <lane id="edge-north-NS_1" index="1" speed="50.00" length="58.90" shape="125.20,140.00 125.20,81.10"/>
        <lane id="edge-north-NS_2" index="2" speed="50.00" length="58.90" shape="128.40,140.00 128.40,81.10"/>
    </edge>
    <edge id="edge-north-SN" from="junction-intersection" to="junction-north" priority="-1">
        <lane id="edge-north-SN_0" index="0" speed="50.00" length="58.90" shape="138.00,81.10 138.00,140.00"/>
        <lane id="edge-north-SN_1" index="1" speed="50.00" length="58.90" shape="134.80,81.10 134.80,140.00"/>
        <lane id="edge-north-SN_2" index="2" speed="50.00" length="58.90" shape="131.60,81.10 131.60,140.00"/>
    </edge>
    <edge id="edge-south-NS" from="junction-intersection" to="junction-south" priority="-1">
        <lane id="edge-south-NS_0" index="0" speed="50.00" length="58.90" shape="122.00,58.90 122.00,0.00"/>
        <lane id="edge-south-NS_1" index="1" speed="50.00" length="58.90" shape="125.20,58.90 125.20,0.00"/>
        <lane id="edge-south-NS_2" index="2" speed="50.00" length="58.90" shape="128.40,58.90 128.40,0.00"/>
    </edge>
    <edge id="edge-south-SN" from="junction-south" to="junction-intersection" priority="-1">
        <lane id="edge-south-SN_0" index="0" speed="50.00" length="58.90" shape="138.00,0.00 138.00,58.90"/>
        <lane id="edge-south-SN_1" index="1" speed="50.00" length="58.90" shape="134.80,0.00 134.80,58.90"/>
        <lane id="edge-south-SN_2" index="2" speed="50.00" length="58.90" shape="131.60,0.00 131.60,58.90"/>
    </edge>
    <edge id="edge-west-EW" from="junction-intersection" to="junction-west" priority="-1">
        <lane id="edge-west-EW_0" index="0" speed="50.00" length="118.90" shape="118.90,78.00 0.00,78.00"/>
        <lane id="edge-west-EW_1" index="1" speed="50.00" length="118.90" shape="118.90,74.80 0.00,74.80"/>
        <lane id="edge-west-EW_2" index="2" speed="50.00" length="118.90" shape="118.90,71.60 0.00,71.60"/>
    </edge>
    <edge id="edge-west-WE" from="junction-west" to="junction-intersection" priority="-1">
        <lane id="edge-west-WE_0" index="0" speed="50.00" length="118.90" shape="0.00,62.00 118.90,62.00"/>
        <lane id="edge-west-WE_1" index="1" speed="50.00" length="118.90" shape="0.00,65.20 118.90,65.20"/>
        <lane id="edge-west-WE_2" index="2" speed="50.00" length="118.90" shape="0.00,68.40 118.90,68.40"/>
    </edge>

    <junction id="junction-east" type="dead_end" x="200.00" y="70.00" incLanes="edge-east-WE_0 edge-east-WE_1 edge-east-WE_2" intLanes="" shape="200.00,70.00 200.00,60.40 200.00,70.00"/>
    <junction id="junction-intersection" type="priority" x="130.00" y="70.00" incLanes="edge-north-NS_0 edge-north-NS_1 edge-north-NS_2 edge-east-EW_0 edge-east-EW_1 edge-east-EW_2 edge-south-SN_0 edge-south-SN_1 edge-south-SN_2 edge-west-WE_0 edge-west-WE_1 edge-west-WE_2" intLanes=":junction-intersection_0_0 :junction-intersection_1_0 :junction-intersection_1_1 :junction-intersection_1_2 :junction-intersection_20_0 :junction-intersection_5_0 :junction-intersection_6_0 :junction-intersection_6_1 :junction-intersection_6_2 :junction-intersection_9_0 :junction-intersection_10_0 :junction-intersection_11_0 :junction-intersection_11_1 :junction-intersection_11_2 :junction-intersection_21_0 :junction-intersection_15_0 :junction-intersection_16_0 :junction-intersection_16_1 :junction-intersection_16_2 :junction-intersection_19_0" shape="120.40,81.10 139.60,81.10 139.77,80.27 139.97,79.97 140.27,79.77 140.64,79.64 141.10,79.60 141.10,60.40 140.27,60.23 139.97,60.02 139.77,59.73 139.64,59.36 139.60,58.90 120.40,58.90 120.23,59.73 120.03,60.03 119.73,60.23 119.36,60.36 118.90,60.40 118.90,79.60 119.73,79.77 120.03,79.97 120.23,80.27 120.36,80.64" radius="1.50">
        <request index="0"  response="00000000000000000000" foes="00000000000111000000" cont="0"/>
        <request index="1"  response="00000000000000000000" foes="11111100001111000000" cont="0"/>
        <request index="2"  response="00000000000000000000" foes="11111100001111000000" cont="0"/>
        <request index="3"  response="00000000000000000000" foes="11111100001111000000" cont="0"/>
        <request index="4"  response="00000011100000000000" foes="11110011101111000000" cont="1"/>
        <request index="5"  response="00000011100000000000" foes="00000011100000000000" cont="0"/>
        <request index="6"  response="00000111100000011111" foes="10000111100000011111" cont="0"/>
        <request index="7"  response="00000111100000011111" foes="10000111100000011111" cont="0"/>
        <request index="8"  response="00000111100000011111" foes="10000111100000011111" cont="0"/>
        <request index="9"  response="01110111100000011110" foes="01110111100000011110" cont="0"/>
        <request index="10" response="00000000000000000000" foes="01110000000000000000" cont="0"/>
        <request index="11" response="00000000000000000000" foes="11110000001111110000" cont="0"/>
        <request index="12" response="00000000000000000000" foes="11110000001111110000" cont="0"/>
        <request index="13" response="00000000000000000000" foes="11110000001111110000" cont="0"/>
        <request index="14" response="00000000000000001110" foes="11110000001111001110" cont="1"/>
        <request index="15" response="00000000000000001110" foes="00000000000000001110" cont="0"/>
        <request index="16" response="00000111110000011110" foes="00000111111000011110" cont="0"/>
        <request index="17" response="00000111110000011110" foes="00000111111000011110" cont="0"/>
        <request index="18" response="00000111110000011110" foes="00000111111000011110" cont="0"/>
        <request index="19" response="00000111100111011110" foes="00000111100111011110" cont="0"/>
    </junction>
    <junction id="junction-north" type="dead_end" x="130.00" y="140.00" incLanes="edge-north-SN_0 edge-north-SN_1 edge-north-SN_2" intLanes="" shape="130.00,140.00 139.60,140.00 130.00,140.00"/>
    <junction id="junction-south" type="dead_end" x="130.00" y="0.00" incLanes="edge-south-NS_0 edge-south-NS_1 edge-south-NS_2" intLanes="" shape="130.00,0.00 120.40,0.00 130.00,0.00"/>
    <junction id="junction-west" type="dead_end" x="0.00" y="70.00" incLanes="edge-west-EW_0 edge-west-EW_1 edge-west-EW_2" intLanes="" shape="0.00,70.00 0.00,79.60 0.00,70.00"/>

    <junction id=":junction-intersection_20_0" type="internal" x="130.00" y="74.20" incLanes=":junction-intersection_4_0 edge-south-SN_0 edge-south-SN_1 edge-south-SN_2" intLanes=":junction-intersection_6_0 :junction-intersection_6_1 :junction-intersection_6_2 :junction-intersection_9_0 :junction-intersection_10_0 :junction-intersection_11_0 :junction-intersection_11_1 :junction-intersection_11_2 :junction-intersection_16_0 :junction-intersection_16_1 :junction-intersection_16_2 :junction-intersection_19_0"/>
    <junction id=":junction-intersection_21_0" type="internal" x="130.00" y="65.80" incLanes=":junction-intersection_14_0 edge-north-NS_0 edge-north-NS_1 edge-north-NS_2" intLanes=":junction-intersection_0_0 :junction-intersection_1_0 :junction-intersection_1_1 :junction-intersection_1_2 :junction-intersection_6_0 :junction-intersection_6_1 :junction-intersection_6_2 :junction-intersection_9_0 :junction-intersection_16_0 :junction-intersection_16_1 :junction-intersection_16_2 :junction-intersection_19_0"/>

    <connection from="edge-east-EW" to="edge-north-SN" fromLane="0" toLane="0" via=":junction-intersection_5_0" dir="r" state="m"/>
    <connection from="edge-east-EW" to="edge-west-EW" fromLane="0" toLane="0" via=":junction-intersection_6_0" dir="s" state="m"/>
    <connection from="edge-east-EW" to="edge-west-EW" fromLane="1" toLane="1" via=":junction-intersection_6_1" dir="s" state="m"/>
    <connection from="edge-east-EW" to="edge-west-EW" fromLane="2" toLane="2" via=":junction-intersection_6_2" dir="s" state="m"/>
    <connection from="edge-east-EW" to="edge-south-NS" fromLane="2" toLane="2" via=":junction-intersection_9_0" dir="l" state="m"/>
    <connection from="edge-north-NS" to="edge-west-EW" fromLane="0" toLane="0" via=":junction-intersection_0_0" dir="r" state="M"/>
    <connection from="edge-north-NS" to="edge-south-NS" fromLane="0" toLane="0" via=":junction-intersection_1_0" dir="s" state="M"/>
    <connection from="edge-north-NS" to="edge-south-NS" fromLane="1" toLane="1" via=":junction-intersection_1_1" dir="s" state="M"/>
    <connection from="edge-north-NS" to="edge-south-NS" fromLane="2" toLane="2" via=":junction-intersection_1_2" dir="s" state="M"/>
    <connection from="edge-north-NS" to="edge-east-WE" fromLane="2" toLane="2" via=":junction-intersection_4_0" dir="l" state="m"/>
    <connection from="edge-south-SN" to="edge-east-WE" fromLane="0" toLane="0" via=":junction-intersection_10_0" dir="r" state="M"/>
    <connection from="edge-south-SN" to="edge-north-SN" fromLane="0" toLane="0" via=":junction-intersection_11_0" dir="s" state="M"/>
    <connection from="edge-south-SN" to="edge-north-SN" fromLane="1" toLane="1" via=":junction-intersection_11_1" dir="s" state="M"/>
    <connection from="edge-south-SN" to="edge-north-SN" fromLane="2" toLane="2" via=":junction-intersection_11_2" dir="s" state="M"/>
    <connection from="edge-south-SN" to="edge-west-EW" fromLane="2" toLane="2" via=":junction-intersection_14_0" dir="l" state="m"/>
    <connection from="edge-west-WE" to="edge-south-NS" fromLane="0" toLane="0" via=":junction-intersection_15_0" dir="r" state="m"/>
    <connection from="edge-west-WE" to="edge-east-WE" fromLane="0" toLane="0" via=":junction-intersection_16_0" dir="s" state="m"/>
    <connection from="edge-west-WE" to="edge-east-WE" fromLane="1" toLane="1" via=":junction-intersection_16_1" dir="s" state="m"/>
    <connection from="edge-west-WE" to="edge-east-WE" fromLane="2" toLane="2" via=":junction-intersection_16_2" dir="s" state="m"/>
    <connection from="edge-west-WE" to="edge-north-SN" fromLane="2" toLane="2" via=":junction-intersection_19_0" dir="l" state="m"/>

    <connection from=":junction-intersection_0" to="edge-west-EW" fromLane="0" toLane="0" dir="r" state="M"/>
    <connection from=":junction-intersection_1" to="edge-south-NS" fromLane="0" toLane="0" dir="s" state="M"/>
    <connection from=":junction-intersection_1" to="edge-south-NS" fromLane="1" toLane="1" dir="s" state="M"/>
    <connection from=":junction-intersection_1" to="edge-south-NS" fromLane="2" toLane="2" dir="s" state="M"/>
    <connection from=":junction-intersection_4" to="edge-east-WE" fromLane="0" toLane="2" via=":junction-intersection_20_0" dir="l" state="m"/>
    <connection from=":junction-intersection_20" to="edge-east-WE" fromLane="0" toLane="2" dir="l" state="M"/>
    <connection from=":junction-intersection_5" to="edge-north-SN" fromLane="0" toLane="0" dir="r" state="M"/>
    <connection from=":junction-intersection_6" to="edge-west-EW" fromLane="0" toLane="0" dir="s" state="M"/>
    <connection from=":junction-intersection_6" to="edge-west-EW" fromLane="1" toLane="1" dir="s" state="M"/>
    <connection from=":junction-intersection_6" to="edge-west-EW" fromLane="2" toLane="2" dir="s" state="M"/>
    <connection from=":junction-intersection_9" to="edge-south-NS" fromLane="0" toLane="2" dir="l" state="M"/>
    <connection from=":junction-intersection_10" to="edge-east-WE" fromLane="0" toLane="0" dir="r" state="M"/>
    <connection from=":junction-intersection_11" to="edge-north-SN" fromLane="0" toLane="0" dir="s" state="M"/>
    <connection from=":junction-intersection_11" to="edge-north-SN" fromLane="1" toLane="1" dir="s" state="M"/>
    <connection from=":junction-intersection_11" to="edge-north-SN" fromLane="2" toLane="2" dir="s" state="M"/>
    <connection from=":junction-intersection_14" to="edge-west-EW" fromLane="0" toLane="2" via=":junction-intersection_21_0" dir="l" state="m"/>
    <connection from=":junction-intersection_21" to="edge-west-EW" fromLane="0" toLane="2" dir="l" state="M"/>
    <connection from=":junction-intersection_15" to="edge-south-NS" fromLane="0" toLane="0" dir="r" state="M"/>
    <connection from=":junction-intersection_16" to="edge-east-WE" fromLane="0" toLane="0" dir="s" state="M"/>
    <connection from=":junction-intersection_16" to="edge-east-WE" fromLane="1" toLane="1" dir="s" state="M"/>
    <connection from=":junction-intersection_16" to="edge-east-WE" fromLane="2" toLane="2" dir="s" state="M"/>
    <connection from=":junction-intersection_19" to="edge-north-SN" fromLane="0" toLane="2" dir="l" state="M"/>

</net>
