<?xml version="1.0" encoding="UTF-8"?>

<!-- generated on 2021-06-17 11:12:44 by Eclipse SUMO duarouter Version 1.9.2
<configuration xmlns:xsi="http://www.w3.org/2001/XMLSchema-instance" xsi:noNamespaceSchemaLocation="http://sumo.dlr.de/xsd/duarouterConfiguration.xsd">

    <input>
        <net-file value="/home/dikshant/github/SMARTS-lite/ultra/ultra/scenarios/task1/train_easy_2lane_t_50kmh_mid-density-flow-9/map.net.xml"/>
        <route-files value="/tmp/tmpdqy3tze6/trips.trips.xml"/>
    </input>

    <output>
        <output-file value="/home/dikshant/github/SMARTS-lite/ultra/ultra/scenarios/task1/train_easy_2lane_t_50kmh_mid-density-flow-9/traffic/all.rou.xml"/>
        <alternatives-output value="/home/dikshant/github/SMARTS-lite/ultra/ultra/scenarios/task1/train_easy_2lane_t_50kmh_mid-density-flow-9/traffic/all.rou.alt.xml"/>
    </output>

    <processing>
        <unsorted-input value="true"/>
        <repair value="true"/>
    </processing>

    <report>
        <error-log value="/home/dikshant/.smarts/_duarouter_routing/traffic/all.log"/>
        <no-step-log value="true"/>
    </report>

    <random_number>
        <seed value="3"/>
    </random_number>

</configuration>
-->

<routes xmlns:xsi="http://www.w3.org/2001/XMLSchema-instance" xsi:noNamespaceSchemaLocation="http://sumo.dlr.de/xsd/routes_file.xsd">
    <vType id="actor-default-8322116838025798517" minGap="2.49" maxSpeed="55.50" speedFactor="normc(1.00,0.05,0.20,2.00)" vClass="passenger" accel="3.0" decel="7.5" sigma="0.4870422731153283"/>
    <vehicle id="default-flow-route-edge-south-SN_0_base-edge-west-EW_0_max--7635321201474816207---7781681476790625976--0-0.0" type="actor-default-8322116838025798517" depart="1.00" departLane="0" departPos="base" departSpeed="max" arrivalLane="0" arrivalPos="max">
        <route edges="edge-south-SN edge-west-EW"/>
    </vehicle>
    <vehicle id="default-flow-route-edge-west-WE_0_base-edge-south-NS_0_max--7064645609782771451---7781681476790625976--2300-0.0" type="actor-default-8322116838025798517" depart="5.00" departLane="0" departPos="base" departSpeed="max" arrivalLane="0" arrivalPos="max">
        <route edges="edge-west-WE edge-south-NS"/>
    </vehicle>
    <vehicle id="default-flow-route-edge-east-EW_0_base-edge-west-EW_0_max--6070551866706451998---7781681476790625976--1200-0.0" type="actor-default-8322116838025798517" depart="9.00" departLane="0" departPos="base" departSpeed="max" arrivalLane="0" arrivalPos="max">
        <route edges="edge-east-EW edge-west-EW"/>
    </vehicle>
    <vehicle id="default-flow-route-edge-east-EW_0_base-edge-west-EW_0_max--6070551866706451998---7781681476790625976--1201-0.0" type="actor-default-8322116838025798517" depart="11.00" departLane="0" departPos="base" departSpeed="max" arrivalLane="0" arrivalPos="max">
        <route edges="edge-east-EW edge-west-EW"/>
    </vehicle>
    <vType id="actor-cautious--2373361519376888597" minGap="5.05" maxSpeed="55.50" speedFactor="normc(0.40,0.10,0.20,2.00)" vClass="passenger" impatience="0.00" lcStrategic="1" lcSpeedGain="1" lcKeepRight="1" lcPushy="0.2" lcImpatience="0" lcLookaheadLeft="2.9" lcOvertakeRight="0" jmIgnoreFoeProb="0.0" jmTimegapMinor="1.0" accel="3.0" decel="10.0" sigma="0.4534310816139646"/>
    <vehicle id="cautious-flow-route-edge-west-WE_0_base-edge-south-NS_0_max--7064645609782771451---6517990416896892420--2301-0.0" type="actor-cautious--2373361519376888597" depart="13.00" departLane="0" departPos="base" departSpeed="max" arrivalLane="0" arrivalPos="max">
        <route edges="edge-west-WE edge-south-NS"/>
    </vehicle>
    <vehicle id="default-flow-route-edge-south-SN_0_base-edge-west-EW_0_max--7635321201474816207---7781681476790625976--1-0.0" type="actor-default-8322116838025798517" depart="14.00" departLane="0" departPos="base" departSpeed="max" arrivalLane="0" arrivalPos="max">
        <route edges="edge-south-SN edge-west-EW"/>
    </vehicle>
    <vehicle id="default-flow-route-edge-east-EW_0_base-edge-south-NS_0_max--6034614037842582270---7781681476790625976--2200-0.0" type="actor-default-8322116838025798517" depart="18.00" departLane="0" departPos="base" departSpeed="max" arrivalLane="0" arrivalPos="max">
        <route edges="edge-east-EW edge-south-NS"/>
    </vehicle>
    <vehicle id="default-flow-route-edge-west-WE_0_base-edge-east-WE_0_max--923470567446612579---7781681476790625976--200-0.0" type="actor-default-8322116838025798517" depart="21.00" departLane="0" departPos="base" departSpeed="max" arrivalLane="0" arrivalPos="max">
        <route edges="edge-west-WE edge-east-WE"/>
    </vehicle>
    <vType id="actor-blocker-886141202779652813" minGap="1.13" maxSpeed="55.50" speedFactor="normc(0.20,0.10,0.20,2.00)" vClass="passenger" impatience="0.00" lcStrategic="0" lcCooperative="0.0" lcSpeedGain="1" lcKeepRight="0.0" lcOpposite="0" lcPushy="0" lcImpatience="0.0" lcTimeToImpatience="1000" lcOvertakeRight="0" jmIgnoreFoeProb="0.0" jmTimegapMinor="1.0" accel="3.0" decel="7.5" sigma="0.009470803828730424"/>
    <vehicle id="blocker-flow-route-edge-west-WE_0_base-edge-south-NS_0_max--7064645609782771451---4084236349552295711--2302-0.0" type="actor-blocker-886141202779652813" depart="26.00" departLane="0" departPos="base" departSpeed="max" arrivalLane="0" arrivalPos="max">
        <route edges="edge-west-WE edge-south-NS"/>
    </vehicle>
    <vehicle id="default-flow-route-edge-east-EW_0_base-edge-west-EW_0_max--6070551866706451998---7781681476790625976--1202-0.0" type="actor-default-8322116838025798517" depart="32.00" departLane="0" departPos="base" departSpeed="max" arrivalLane="0" arrivalPos="max">
        <route edges="edge-east-EW edge-west-EW"/>
    </vehicle>
    <vehicle id="default-flow-route-edge-east-EW_0_base-edge-west-EW_0_max--6070551866706451998---7781681476790625976--1203-0.0" type="actor-default-8322116838025798517" depart="33.00" departLane="0" departPos="base" departSpeed="max" arrivalLane="0" arrivalPos="max">
        <route edges="edge-east-EW edge-west-EW"/>
    </vehicle>
    <vehicle id="default-flow-route-edge-east-EW_0_base-edge-south-NS_0_max--6034614037842582270---7781681476790625976--2201-0.0" type="actor-default-8322116838025798517" depart="36.00" departLane="0" departPos="base" departSpeed="max" arrivalLane="0" arrivalPos="max">
        <route edges="edge-east-EW edge-south-NS"/>
    </vehicle>
    <vehicle id="default-flow-route-edge-south-SN_0_base-edge-east-WE_0_max-7154147728478964345---7781681476790625976--100-0.0" type="actor-default-8322116838025798517" depart="39.00" departLane="0" departPos="base" departSpeed="max" arrivalLane="0" arrivalPos="max">
        <route edges="edge-south-SN edge-east-WE"/>
    </vehicle>
    <vehicle id="default-flow-route-edge-west-WE_0_base-edge-south-NS_0_max--7064645609782771451---7781681476790625976--2303-0.0" type="actor-default-8322116838025798517" depart="42.00" departLane="0" departPos="base" departSpeed="max" arrivalLane="0" arrivalPos="max">
        <route edges="edge-west-WE edge-south-NS"/>
    </vehicle>
    <vehicle id="default-flow-route-edge-east-EW_0_base-edge-west-EW_0_max--6070551866706451998---7781681476790625976--1204-0.0" type="actor-default-8322116838025798517" depart="48.00" departLane="0" departPos="base" departSpeed="max" arrivalLane="0" arrivalPos="max">
        <route edges="edge-east-EW edge-west-EW"/>
    </vehicle>
    <vehicle id="default-flow-route-edge-south-SN_0_base-edge-west-EW_0_max--7635321201474816207---7781681476790625976--2-0.0" type="actor-default-8322116838025798517" depart="50.00" departLane="0" departPos="base" departSpeed="max" arrivalLane="0" arrivalPos="max">
        <route edges="edge-south-SN edge-west-EW"/>
    </vehicle>
    <vehicle id="default-flow-route-edge-east-EW_0_base-edge-south-NS_0_max--6034614037842582270---7781681476790625976--2202-0.0" type="actor-default-8322116838025798517" depart="55.00" departLane="0" departPos="base" departSpeed="max" arrivalLane="0" arrivalPos="max">
        <route edges="edge-east-EW edge-south-NS"/>
    </vehicle>
    <vehicle id="default-flow-route-edge-south-SN_0_base-edge-west-EW_0_max--7635321201474816207---7781681476790625976--3-0.0" type="actor-default-8322116838025798517" depart="55.00" departLane="0" departPos="base" departSpeed="max" arrivalLane="0" arrivalPos="max">
        <route edges="edge-south-SN edge-west-EW"/>
    </vehicle>
    <vType id="actor-aggressive--4735503655220445185" minGap="1.02" maxSpeed="55.50" speedFactor="normc(1.50,0.10,0.20,2.00)" vClass="passenger" impatience="0.98" lcStrategic="10" lcSpeedGain="200" lcPushy="1.0" lcImpatience="1.0" lcTimeToImpatience="0.01" lcLookaheadLeft="0.0" lcOvertakeRight="1" jmIgnoreFoeProb="0.98" jmTimegapMinor="0.1" accel="10.0" decel="10.0" sigma="0.28997252784647576"/>
    <vehicle id="aggressive-flow-route-edge-south-SN_0_base-edge-west-EW_0_max--7635321201474816207--3503539270674168220--4-0.0" type="actor-aggressive--4735503655220445185" depart="66.00" departLane="0" departPos="base" departSpeed="max" arrivalLane="0" arrivalPos="max">
        <route edges="edge-south-SN edge-west-EW"/>
    </vehicle>
    <vehicle id="default-flow-route-edge-west-WE_0_base-edge-east-WE_0_max--923470567446612579---7781681476790625976--201-0.0" type="actor-default-8322116838025798517" depart="67.00" departLane="0" departPos="base" departSpeed="max" arrivalLane="0" arrivalPos="max">
        <route edges="edge-west-WE edge-east-WE"/>
    </vehicle>
    <vehicle id="default-flow-route-edge-south-SN_0_base-edge-east-WE_0_max-7154147728478964345---7781681476790625976--101-0.0" type="actor-default-8322116838025798517" depart="68.00" departLane="0" departPos="base" departSpeed="max" arrivalLane="0" arrivalPos="max">
        <route edges="edge-south-SN edge-east-WE"/>
    </vehicle>
    <vehicle id="default-flow-route-edge-east-EW_0_base-edge-west-EW_0_max--6070551866706451998---7781681476790625976--1205-0.0" type="actor-default-8322116838025798517" depart="70.00" departLane="0" departPos="base" departSpeed="max" arrivalLane="0" arrivalPos="max">
        <route edges="edge-east-EW edge-west-EW"/>
    </vehicle>
    <vehicle id="default-flow-route-edge-west-WE_0_base-edge-east-WE_0_max--923470567446612579---7781681476790625976--202-0.0" type="actor-default-8322116838025798517" depart="82.00" departLane="0" departPos="base" departSpeed="max" arrivalLane="0" arrivalPos="max">
        <route edges="edge-west-WE edge-east-WE"/>
    </vehicle>
    <vehicle id="default-flow-route-edge-west-WE_0_base-edge-east-WE_0_max--923470567446612579---7781681476790625976--203-0.0" type="actor-default-8322116838025798517" depart="94.00" departLane="0" departPos="base" departSpeed="max" arrivalLane="0" arrivalPos="max">
        <route edges="edge-west-WE edge-east-WE"/>
    </vehicle>
    <vehicle id="default-flow-route-edge-south-SN_0_base-edge-west-EW_0_max--7635321201474816207---7781681476790625976--5-0.0" type="actor-default-8322116838025798517" depart="96.00" departLane="0" departPos="base" departSpeed="max" arrivalLane="0" arrivalPos="max">
        <route edges="edge-south-SN edge-west-EW"/>
    </vehicle>
    <vehicle id="default-flow-route-edge-west-WE_0_base-edge-east-WE_0_max--923470567446612579---7781681476790625976--204-0.0" type="actor-default-8322116838025798517" depart="96.00" departLane="0" departPos="base" departSpeed="max" arrivalLane="0" arrivalPos="max">
        <route edges="edge-west-WE edge-east-WE"/>
    </vehicle>
    <vehicle id="default-flow-route-edge-west-WE_0_base-edge-east-WE_0_max--923470567446612579---7781681476790625976--205-0.0" type="actor-default-8322116838025798517" depart="97.00" departLane="0" departPos="base" departSpeed="max" arrivalLane="0" arrivalPos="max">
        <route edges="edge-west-WE edge-east-WE"/>
    </vehicle>
    <vehicle id="default-flow-route-edge-south-SN_0_base-edge-east-WE_0_max-7154147728478964345---7781681476790625976--102-0.0" type="actor-default-8322116838025798517" depart="105.00" departLane="0" departPos="base" departSpeed="max" arrivalLane="0" arrivalPos="max">
        <route edges="edge-south-SN edge-east-WE"/>
    </vehicle>
    <vehicle id="default-flow-route-edge-west-WE_0_base-edge-south-NS_0_max--7064645609782771451---7781681476790625976--2304-0.0" type="actor-default-8322116838025798517" depart="109.00" departLane="0" departPos="base" departSpeed="max" arrivalLane="0" arrivalPos="max">
        <route edges="edge-west-WE edge-south-NS"/>
    </vehicle>
    <vehicle id="aggressive-flow-route-edge-west-WE_0_base-edge-south-NS_0_max--7064645609782771451--3503539270674168220--2305-0.0" type="actor-aggressive--4735503655220445185" depart="117.00" departLane="0" departPos="base" departSpeed="max" arrivalLane="0" arrivalPos="max">
        <route edges="edge-west-WE edge-south-NS"/>
    </vehicle>
    <vehicle id="default-flow-route-edge-east-EW_0_base-edge-west-EW_0_max--6070551866706451998---7781681476790625976--1206-0.0" type="actor-default-8322116838025798517" depart="122.00" departLane="0" departPos="base" departSpeed="max" arrivalLane="0" arrivalPos="max">
        <route edges="edge-east-EW edge-west-EW"/>
    </vehicle>
    <vehicle id="blocker-flow-route-edge-east-EW_0_base-edge-south-NS_0_max--6034614037842582270---4084236349552295711--2203-0.0" type="actor-blocker-886141202779652813" depart="124.00" departLane="0" departPos="base" departSpeed="max" arrivalLane="0" arrivalPos="max">
        <route edges="edge-east-EW edge-south-NS"/>
    </vehicle>
    <vehicle id="blocker-flow-route-edge-south-SN_0_base-edge-west-EW_0_max--7635321201474816207---4084236349552295711--6-0.0" type="actor-blocker-886141202779652813" depart="125.00" departLane="0" departPos="base" departSpeed="max" arrivalLane="0" arrivalPos="max">
        <route edges="edge-south-SN edge-west-EW"/>
    </vehicle>
    <vehicle id="default-flow-route-edge-west-WE_0_base-edge-east-WE_0_max--923470567446612579---7781681476790625976--206-0.0" type="actor-default-8322116838025798517" depart="132.00" departLane="0" departPos="base" departSpeed="max" arrivalLane="0" arrivalPos="max">
        <route edges="edge-west-WE edge-east-WE"/>
    </vehicle>
    <vehicle id="default-flow-route-edge-east-EW_0_base-edge-west-EW_0_max--6070551866706451998---7781681476790625976--1207-0.0" type="actor-default-8322116838025798517" depart="147.00" departLane="0" departPos="base" departSpeed="max" arrivalLane="0" arrivalPos="max">
        <route edges="edge-east-EW edge-west-EW"/>
    </vehicle>
    <vehicle id="default-flow-route-edge-east-EW_0_base-edge-west-EW_0_max--6070551866706451998---7781681476790625976--1208-0.0" type="actor-default-8322116838025798517" depart="149.00" departLane="0" departPos="base" departSpeed="max" arrivalLane="0" arrivalPos="max">
        <route edges="edge-east-EW edge-west-EW"/>
    </vehicle>
    <vehicle id="cautious-flow-route-edge-south-SN_0_base-edge-west-EW_0_max--7635321201474816207---6517990416896892420--7-0.0" type="actor-cautious--2373361519376888597" depart="164.00" departLane="0" departPos="base" departSpeed="max" arrivalLane="0" arrivalPos="max">
        <route edges="edge-south-SN edge-west-EW"/>
    </vehicle>
    <vehicle id="cautious-flow-route-edge-west-WE_0_base-edge-east-WE_0_max--923470567446612579---6517990416896892420--207-0.0" type="actor-cautious--2373361519376888597" depart="166.00" departLane="0" departPos="base" departSpeed="max" arrivalLane="0" arrivalPos="max">
        <route edges="edge-west-WE edge-east-WE"/>
    </vehicle>
    <vehicle id="default-flow-route-edge-east-EW_0_base-edge-south-NS_0_max--6034614037842582270---7781681476790625976--2204-0.0" type="actor-default-8322116838025798517" depart="174.00" departLane="0" departPos="base" departSpeed="max" arrivalLane="0" arrivalPos="max">
        <route edges="edge-east-EW edge-south-NS"/>
    </vehicle>
    <vehicle id="cautious-flow-route-edge-east-EW_0_base-edge-south-NS_0_max--6034614037842582270---6517990416896892420--2205-0.0" type="actor-cautious--2373361519376888597" depart="180.00" departLane="0" departPos="base" departSpeed="max" arrivalLane="0" arrivalPos="max">
        <route edges="edge-east-EW edge-south-NS"/>
    </vehicle>
    <vehicle id="default-flow-route-edge-west-WE_0_base-edge-south-NS_0_max--7064645609782771451---7781681476790625976--2306-0.0" type="actor-default-8322116838025798517" depart="183.00" departLane="0" departPos="base" departSpeed="max" arrivalLane="0" arrivalPos="max">
        <route edges="edge-west-WE edge-south-NS"/>
    </vehicle>
    <vehicle id="default-flow-route-edge-south-SN_0_base-edge-east-WE_0_max-7154147728478964345---7781681476790625976--103-0.0" type="actor-default-8322116838025798517" depart="185.00" departLane="0" departPos="base" departSpeed="max" arrivalLane="0" arrivalPos="max">
        <route edges="edge-south-SN edge-east-WE"/>
    </vehicle>
    <vehicle id="default-flow-route-edge-east-EW_0_base-edge-south-NS_0_max--6034614037842582270---7781681476790625976--2206-0.0" type="actor-default-8322116838025798517" depart="186.00" departLane="0" departPos="base" departSpeed="max" arrivalLane="0" arrivalPos="max">
        <route edges="edge-east-EW edge-south-NS"/>
    </vehicle>
    <vehicle id="aggressive-flow-route-edge-west-WE_0_base-edge-east-WE_0_max--923470567446612579--3503539270674168220--208-0.0" type="actor-aggressive--4735503655220445185" depart="195.00" departLane="0" departPos="base" departSpeed="max" arrivalLane="0" arrivalPos="max">
        <route edges="edge-west-WE edge-east-WE"/>
    </vehicle>
    <vehicle id="default-flow-route-edge-south-SN_0_base-edge-west-EW_0_max--7635321201474816207---7781681476790625976--8-0.0" type="actor-default-8322116838025798517" depart="199.00" departLane="0" departPos="base" departSpeed="max" arrivalLane="0" arrivalPos="max">
        <route edges="edge-south-SN edge-west-EW"/>
    </vehicle>
    <vehicle id="default-flow-route-edge-west-WE_0_base-edge-east-WE_0_max--923470567446612579---7781681476790625976--209-0.0" type="actor-default-8322116838025798517" depart="204.00" departLane="0" departPos="base" departSpeed="max" arrivalLane="0" arrivalPos="max">
        <route edges="edge-west-WE edge-east-WE"/>
    </vehicle>
    <vehicle id="default-flow-route-edge-east-EW_0_base-edge-south-NS_0_max--6034614037842582270---7781681476790625976--2207-0.0" type="actor-default-8322116838025798517" depart="213.00" departLane="0" departPos="base" departSpeed="max" arrivalLane="0" arrivalPos="max">
        <route edges="edge-east-EW edge-south-NS"/>
    </vehicle>
    <vehicle id="default-flow-route-edge-south-SN_0_base-edge-west-EW_0_max--7635321201474816207---7781681476790625976--9-0.0" type="actor-default-8322116838025798517" depart="216.00" departLane="0" departPos="base" departSpeed="max" arrivalLane="0" arrivalPos="max">
        <route edges="edge-south-SN edge-west-EW"/>
    </vehicle>
    <vehicle id="default-flow-route-edge-west-WE_0_base-edge-east-WE_0_max--923470567446612579---7781681476790625976--210-0.0" type="actor-default-8322116838025798517" depart="216.00" departLane="0" departPos="base" departSpeed="max" arrivalLane="0" arrivalPos="max">
        <route edges="edge-west-WE edge-east-WE"/>
    </vehicle>
    <vehicle id="default-flow-route-edge-east-EW_0_base-edge-south-NS_0_max--6034614037842582270---7781681476790625976--2208-0.0" type="actor-default-8322116838025798517" depart="218.00" departLane="0" departPos="base" departSpeed="max" arrivalLane="0" arrivalPos="max">
        <route edges="edge-east-EW edge-south-NS"/>
    </vehicle>
    <vehicle id="default-flow-route-edge-east-EW_0_base-edge-west-EW_0_max--6070551866706451998---7781681476790625976--1209-0.0" type="actor-default-8322116838025798517" depart="219.00" departLane="0" departPos="base" departSpeed="max" arrivalLane="0" arrivalPos="max">
        <route edges="edge-east-EW edge-west-EW"/>
    </vehicle>
    <vehicle id="default-flow-route-edge-west-WE_0_base-edge-east-WE_0_max--923470567446612579---7781681476790625976--211-0.0" type="actor-default-8322116838025798517" depart="220.00" departLane="0" departPos="base" departSpeed="max" arrivalLane="0" arrivalPos="max">
        <route edges="edge-west-WE edge-east-WE"/>
    </vehicle>
    <vehicle id="default-flow-route-edge-west-WE_0_base-edge-south-NS_0_max--7064645609782771451---7781681476790625976--2307-0.0" type="actor-default-8322116838025798517" depart="223.00" departLane="0" departPos="base" departSpeed="max" arrivalLane="0" arrivalPos="max">
        <route edges="edge-west-WE edge-south-NS"/>
    </vehicle>
    <vehicle id="default-flow-route-edge-south-SN_0_base-edge-east-WE_0_max-7154147728478964345---7781681476790625976--104-0.0" type="actor-default-8322116838025798517" depart="231.00" departLane="0" departPos="base" departSpeed="max" arrivalLane="0" arrivalPos="max">
        <route edges="edge-south-SN edge-east-WE"/>
    </vehicle>
    <vehicle id="cautious-flow-route-edge-south-SN_0_base-edge-west-EW_0_max--7635321201474816207---6517990416896892420--10-0.0" type="actor-cautious--2373361519376888597" depart="237.00" departLane="0" departPos="base" departSpeed="max" arrivalLane="0" arrivalPos="max">
        <route edges="edge-south-SN edge-west-EW"/>
    </vehicle>
    <vehicle id="default-flow-route-edge-south-SN_0_base-edge-west-EW_0_max--7635321201474816207---7781681476790625976--11-0.0" type="actor-default-8322116838025798517" depart="239.00" departLane="0" departPos="base" departSpeed="max" arrivalLane="0" arrivalPos="max">
        <route edges="edge-south-SN edge-west-EW"/>
    </vehicle>
    <vehicle id="default-flow-route-edge-south-SN_0_base-edge-east-WE_0_max-7154147728478964345---7781681476790625976--105-0.0" type="actor-default-8322116838025798517" depart="240.00" departLane="0" departPos="base" departSpeed="max" arrivalLane="0" arrivalPos="max">
        <route edges="edge-south-SN edge-east-WE"/>
    </vehicle>
    <vehicle id="cautious-flow-route-edge-south-SN_0_base-edge-west-EW_0_max--7635321201474816207---6517990416896892420--12-0.0" type="actor-cautious--2373361519376888597" depart="241.00" departLane="0" departPos="base" departSpeed="max" arrivalLane="0" arrivalPos="max">
        <route edges="edge-south-SN edge-west-EW"/>
    </vehicle>
    <vehicle id="default-flow-route-edge-south-SN_0_base-edge-east-WE_0_max-7154147728478964345---7781681476790625976--106-0.0" type="actor-default-8322116838025798517" depart="242.00" departLane="0" departPos="base" departSpeed="max" arrivalLane="0" arrivalPos="max">
        <route edges="edge-south-SN edge-east-WE"/>
    </vehicle>
    <vehicle id="default-flow-route-edge-south-SN_0_base-edge-east-WE_0_max-7154147728478964345---7781681476790625976--107-0.0" type="actor-default-8322116838025798517" depart="246.00" departLane="0" departPos="base" departSpeed="max" arrivalLane="0" arrivalPos="max">
        <route edges="edge-south-SN edge-east-WE"/>
    </vehicle>
    <vehicle id="default-flow-route-edge-south-SN_0_base-edge-west-EW_0_max--7635321201474816207---7781681476790625976--13-0.0" type="actor-default-8322116838025798517" depart="258.00" departLane="0" departPos="base" departSpeed="max" arrivalLane="0" arrivalPos="max">
        <route edges="edge-south-SN edge-west-EW"/>
    </vehicle>
    <vehicle id="default-flow-route-edge-south-SN_0_base-edge-west-EW_0_max--7635321201474816207---7781681476790625976--14-0.0" type="actor-default-8322116838025798517" depart="259.00" departLane="0" departPos="base" departSpeed="max" arrivalLane="0" arrivalPos="max">
        <route edges="edge-south-SN edge-west-EW"/>
    </vehicle>
    <vehicle id="blocker-flow-route-edge-east-EW_0_base-edge-south-NS_0_max--6034614037842582270---4084236349552295711--2209-0.0" type="actor-blocker-886141202779652813" depart="270.00" departLane="0" departPos="base" departSpeed="max" arrivalLane="0" arrivalPos="max">
        <route edges="edge-east-EW edge-south-NS"/>
    </vehicle>
    <vehicle id="aggressive-flow-route-edge-south-SN_0_base-edge-west-EW_0_max--7635321201474816207--3503539270674168220--15-0.0" type="actor-aggressive--4735503655220445185" depart="274.00" departLane="0" departPos="base" departSpeed="max" arrivalLane="0" arrivalPos="max">
        <route edges="edge-south-SN edge-west-EW"/>
    </vehicle>
    <vehicle id="aggressive-flow-route-edge-west-WE_0_base-edge-east-WE_0_max--923470567446612579--3503539270674168220--212-0.0" type="actor-aggressive--4735503655220445185" depart="274.00" departLane="0" departPos="base" departSpeed="max" arrivalLane="0" arrivalPos="max">
        <route edges="edge-west-WE edge-east-WE"/>
    </vehicle>
    <vehicle id="default-flow-route-edge-west-WE_0_base-edge-south-NS_0_max--7064645609782771451---7781681476790625976--2308-0.0" type="actor-default-8322116838025798517" depart="276.00" departLane="0" departPos="base" departSpeed="max" arrivalLane="0" arrivalPos="max">
        <route edges="edge-west-WE edge-south-NS"/>
    </vehicle>
    <vehicle id="default-flow-route-edge-east-EW_0_base-edge-west-EW_0_max--6070551866706451998---7781681476790625976--1210-0.0" type="actor-default-8322116838025798517" depart="281.00" departLane="0" departPos="base" departSpeed="max" arrivalLane="0" arrivalPos="max">
        <route edges="edge-east-EW edge-west-EW"/>
    </vehicle>
    <vehicle id="default-flow-route-edge-west-WE_0_base-edge-east-WE_0_max--923470567446612579---7781681476790625976--213-0.0" type="actor-default-8322116838025798517" depart="284.00" departLane="0" departPos="base" departSpeed="max" arrivalLane="0" arrivalPos="max">
        <route edges="edge-west-WE edge-east-WE"/>
    </vehicle>
    <vehicle id="default-flow-route-edge-west-WE_0_base-edge-east-WE_0_max--923470567446612579---7781681476790625976--214-0.0" type="actor-default-8322116838025798517" depart="287.00" departLane="0" departPos="base" departSpeed="max" arrivalLane="0" arrivalPos="max">
        <route edges="edge-west-WE edge-east-WE"/>
    </vehicle>
    <vehicle id="default-flow-route-edge-east-EW_0_base-edge-west-EW_0_max--6070551866706451998---7781681476790625976--1211-0.0" type="actor-default-8322116838025798517" depart="297.00" departLane="0" departPos="base" departSpeed="max" arrivalLane="0" arrivalPos="max">
        <route edges="edge-east-EW edge-west-EW"/>
    </vehicle>
    <vehicle id="cautious-flow-route-edge-east-EW_0_base-edge-west-EW_0_max--6070551866706451998---6517990416896892420--1212-0.0" type="actor-cautious--2373361519376888597" depart="300.00" departLane="0" departPos="base" departSpeed="max" arrivalLane="0" arrivalPos="max">
        <route edges="edge-east-EW edge-west-EW"/>
    </vehicle>
    <vehicle id="default-flow-route-edge-east-EW_0_base-edge-south-NS_0_max--6034614037842582270---7781681476790625976--2210-0.0" type="actor-default-8322116838025798517" depart="300.00" departLane="0" departPos="base" departSpeed="max" arrivalLane="0" arrivalPos="max">
        <route edges="edge-east-EW edge-south-NS"/>
    </vehicle>
    <vehicle id="default-flow-route-edge-south-SN_0_base-edge-east-WE_0_max-7154147728478964345---7781681476790625976--108-0.0" type="actor-default-8322116838025798517" depart="302.00" departLane="0" departPos="base" departSpeed="max" arrivalLane="0" arrivalPos="max">
        <route edges="edge-south-SN edge-east-WE"/>
    </vehicle>
    <vehicle id="default-flow-route-edge-east-EW_0_base-edge-south-NS_0_max--6034614037842582270---7781681476790625976--2211-0.0" type="actor-default-8322116838025798517" depart="303.00" departLane="0" departPos="base" departSpeed="max" arrivalLane="0" arrivalPos="max">
        <route edges="edge-east-EW edge-south-NS"/>
    </vehicle>
    <vehicle id="default-flow-route-edge-south-SN_0_base-edge-west-EW_0_max--7635321201474816207---7781681476790625976--16-0.0" type="actor-default-8322116838025798517" depart="303.00" departLane="0" departPos="base" departSpeed="max" arrivalLane="0" arrivalPos="max">
        <route edges="edge-south-SN edge-west-EW"/>
    </vehicle>
    <vehicle id="default-flow-route-edge-west-WE_0_base-edge-east-WE_0_max--923470567446612579---7781681476790625976--215-0.0" type="actor-default-8322116838025798517" depart="307.00" departLane="0" departPos="base" departSpeed="max" arrivalLane="0" arrivalPos="max">
        <route edges="edge-west-WE edge-east-WE"/>
    </vehicle>
    <vehicle id="default-flow-route-edge-east-EW_0_base-edge-south-NS_0_max--6034614037842582270---7781681476790625976--2212-0.0" type="actor-default-8322116838025798517" depart="314.00" departLane="0" departPos="base" departSpeed="max" arrivalLane="0" arrivalPos="max">
        <route edges="edge-east-EW edge-south-NS"/>
    </vehicle>
    <vehicle id="default-flow-route-edge-west-WE_0_base-edge-east-WE_0_max--923470567446612579---7781681476790625976--216-0.0" type="actor-default-8322116838025798517" depart="314.00" departLane="0" departPos="base" departSpeed="max" arrivalLane="0" arrivalPos="max">
        <route edges="edge-west-WE edge-east-WE"/>
    </vehicle>
    <vehicle id="default-flow-route-edge-east-EW_0_base-edge-south-NS_0_max--6034614037842582270---7781681476790625976--2213-0.0" type="actor-default-8322116838025798517" depart="316.00" departLane="0" departPos="base" departSpeed="max" arrivalLane="0" arrivalPos="max">
        <route edges="edge-east-EW edge-south-NS"/>
    </vehicle>
    <vehicle id="default-flow-route-edge-south-SN_0_base-edge-east-WE_0_max-7154147728478964345---7781681476790625976--109-0.0" type="actor-default-8322116838025798517" depart="320.00" departLane="0" departPos="base" departSpeed="max" arrivalLane="0" arrivalPos="max">
        <route edges="edge-south-SN edge-east-WE"/>
    </vehicle>
    <vehicle id="default-flow-route-edge-west-WE_0_base-edge-south-NS_0_max--7064645609782771451---7781681476790625976--2309-0.0" type="actor-default-8322116838025798517" depart="329.00" departLane="0" departPos="base" departSpeed="max" arrivalLane="0" arrivalPos="max">
        <route edges="edge-west-WE edge-south-NS"/>
    </vehicle>