<?xml version="1.0" encoding="UTF-8"?>

<!-- generated on 2021-06-30 11:28:22 by Eclipse SUMO netconvert Version 1.9.1
<configuration xmlns:xsi="http://www.w3.org/2001/XMLSchema-instance" xsi:noNamespaceSchemaLocation="http://sumo.dlr.de/xsd/netconvertConfiguration.xsd">

    <input>
        <sumo-net-file value="ultra/scenarios/pool/2lane_curvy_t/70kmh/map.net.xml"/>
    </input>

    <output>
        <output-file value="ultra/scenarios/pool/2lane_curvy_t/70kmh/shifted_map-AUTOGEN.net.xml"/>
    </output>

    <processing>
        <geometry.min-radius.fix.railways value="false"/>
        <geometry.max-grade.fix value="false"/>
        <offset.disable-normalization value="false"/>
        <lefthand value="false"/>
    </processing>

    <junctions>
        <no-turnarounds value="true"/>
        <junctions.corner-detail value="5"/>
        <junctions.limit-turn-speed value="-1"/>
        <rectangular-lane-cut value="false"/>
    </junctions>

    <pedestrian>
        <walkingareas value="false"/>
    </pedestrian>

    <report>
        <aggregate-warnings value="5"/>
    </report>

</configuration>
-->

<net version="1.9" junctionCornerDetail="5" xmlns:xsi="http://www.w3.org/2001/XMLSchema-instance" xsi:noNamespaceSchemaLocation="http://sumo.dlr.de/xsd/net_file.xsd">

    <location netOffset="114.42,186.24" convBoundary="0.00,0.00,424.07,183.59" origBoundary="-10000000000.00,-10000000000.00,10000000000.00,10000000000.00" projParameter="!"/>

    <edge id=":gneJ3_0" function="internal">
        <lane id=":gneJ3_0_0" index="0" speed="13.89" length="7.75" shape="75.05,3.21 75.35,1.10 76.25,-0.40 77.75,-1.30 79.86,-1.60"/>
    </edge>
    <edge id=":gneJ3_1" function="internal">
        <lane id=":gneJ3_1_0" index="0" speed="13.89" length="2.58" shape="79.85,1.60 79.15,1.70 78.65,2.00 78.35,2.50 78.25,3.21"/>
    </edge>
    <edge id=":junction-intersection_0" function="internal">
        <lane id=":junction-intersection_0_0" index="0" speed="19.44" length="14.40" shape="222.00,185.00 207.61,185.01"/>
    </edge>
    <edge id=":junction-intersection_1" function="internal">
        <lane id=":junction-intersection_1_0" index="0" speed="16.66" length="5.92" shape="222.00,185.00 218.16,184.45 216.41,183.40"/>
    </edge>
    <edge id=":junction-intersection_6" function="internal">
        <lane id=":junction-intersection_6_0" index="0" speed="16.66" length="8.27" shape="216.41,183.40 215.41,182.80 213.75,180.05 213.20,176.20"/>
    </edge>
    <edge id=":junction-intersection_2" function="internal">
        <lane id=":junction-intersection_2_0" index="0" speed="16.66" length="9.04" shape="216.40,176.19 216.75,178.65 217.80,180.40 219.55,181.45 222.00,181.80"/>
    </edge>
    <edge id=":junction-intersection_3" function="internal">
        <lane id=":junction-intersection_3_0" index="0" speed="16.66" length="14.20" shape="216.40,176.19 215.85,180.05 214.21,182.80 211.46,184.45 207.61,185.01"/>
    </edge>
    <edge id=":junction-intersection_4" function="internal">
        <lane id=":junction-intersection_4_0" index="0" speed="16.66" length="9.03" shape="207.61,181.81 210.06,181.45 211.80,180.40 212.85,178.65 213.20,176.20"/>
    </edge>
    <edge id=":junction-intersection_5" function="internal">
        <lane id=":junction-intersection_5_0" index="0" speed="19.44" length="14.40" shape="207.61,181.81 222.00,181.80"/>
    </edge>
    <edge id=":junction-south_0" function="internal">
        <lane id=":junction-south_0_0" index="0" speed="13.89" length="2.57" shape="285.02,3.44 284.92,2.74 284.62,2.25 284.12,1.95 283.42,1.85"/>
    </edge>
    <edge id=":junction-south_1" function="internal">
        <lane id=":junction-south_1_0" index="0" speed="13.89" length="7.71" shape="283.43,-1.35 285.52,-1.05 287.01,-0.16 287.92,1.34 288.22,3.43"/>
    </edge>

    <edge id="-edge-dead-end" from="gneJ5" to="gneJ3" priority="-1">
        <lane id="-edge-dead-end_0" index="0" speed="13.89" length="117.57" shape="75.16,120.78 75.05,3.21"/>
    </edge>
    <edge id="edge-dead-end" from="gneJ3" to="gneJ5" priority="-1">
        <lane id="edge-dead-end_0" index="0" speed="13.89" length="117.57" shape="78.25,3.21 78.36,120.78"/>
    </edge>
    <edge id="edge-east-EW" from="junction-east" to="junction-intersection" priority="1">
        <lane id="edge-east-EW_0" index="0" speed="19.44" length="202.07" shape="424.07,185.00 222.00,185.00"/>
    </edge>
    <edge id="edge-east-WE" from="junction-intersection" to="junction-east" priority="1" spreadType="center" shape="214.80,181.80 424.07,181.80">
        <lane id="edge-east-WE_0" index="0" speed="19.44" length="202.07" shape="222.00,181.80 424.07,181.80"/>
    </edge>
    <edge id="edge-south-NS" from="junction-intersection" to="junction-south" priority="-1" shape="214.81,183.40 214.74,144.77 217.05,113.91 229.32,93.75 247.46,80.57 266.40,75.43 276.12,67.97 286.79,44.82 286.61,0.25">
        <lane id="edge-south-NS_0" index="0" speed="13.89" length="207.14" shape="213.20,176.20 213.14,144.71 215.48,113.41 228.12,92.64 246.76,79.10 265.68,73.97 274.83,66.94 285.19,44.47 285.02,3.44"/>
    </edge>
    <edge id="edge-south-NS.493" from="junction-south" to="gneJ3" priority="-1">
        <lane id="edge-south-NS.493_0" index="0" speed="13.89" length="203.57" shape="283.42,1.85 79.85,1.60"/>
    </edge>
    <edge id="edge-south-SN" from="junction-south" to="junction-intersection" priority="-1" shape="286.61,0.25 286.79,44.82 276.12,67.97 266.40,75.43 247.46,80.57 229.32,93.75 217.05,113.91 214.74,144.77 214.81,183.40">
        <lane id="edge-south-SN_0" index="0" speed="13.89" length="207.16" shape="288.22,3.43 288.39,45.17 277.41,69.00 267.12,76.89 248.16,82.04 230.52,94.86 218.62,114.41 216.34,144.83 216.40,176.19"/>
    </edge>
    <edge id="edge-south-side-2" from="gneJ3" to="junction-south" priority="-1">
        <lane id="edge-south-side-2_0" index="0" speed="13.89" length="203.57" shape="79.86,-1.60 283.43,-1.35"/>
    </edge>
    <edge id="edge-west-EW" from="junction-intersection" to="junction-west" priority="1">
        <lane id="edge-west-EW_0" index="0" speed="19.44" length="207.61" shape="207.61,185.01 0.00,185.19"/>
    </edge>
    <edge id="edge-west-WE" from="junction-west" to="junction-intersection" priority="1">
        <lane id="edge-west-WE_0" index="0" speed="19.44" length="207.61" shape="-0.00,181.99 207.61,181.81"/>
    </edge>

    <junction id="gneJ3" type="priority" x="76.65" y="0.00" incLanes="-edge-dead-end_0 edge-south-NS.493_0" intLanes=":gneJ3_0_0 :gneJ3_1_0" shape="73.45,3.21 79.85,3.20 79.86,-3.20 76.30,-2.49 75.05,-1.60 74.16,-0.35 73.63,1.25">
        <request index="0" response="00" foes="00" cont="0"/>
        <request index="1" response="00" foes="00" cont="0"/>
    </junction>
    <junction id="gneJ5" type="dead_end" x="76.76" y="120.78" incLanes="edge-dead-end_0" intLanes="" shape="76.76,120.78 79.96,120.78 76.76,120.78"/>
    <junction id="junction-east" type="dead_end" x="424.07" y="183.40" incLanes="edge-east-WE_0" intLanes="" shape="424.07,183.40 424.07,180.20 424.07,183.40"/>
    <junction id="junction-intersection" type="priority" x="214.81" y="183.40" incLanes="edge-east-EW_0 edge-south-SN_0 edge-west-WE_0" intLanes=":junction-intersection_0_0 :junction-intersection_6_0 :junction-intersection_2_0 :junction-intersection_3_0 :junction-intersection_4_0 :junction-intersection_5_0" shape="222.00,186.60 222.00,180.20 219.78,179.75 219.00,179.20 218.45,178.42 218.11,177.42 218.00,176.19 211.60,176.20 211.16,178.43 210.60,179.20 209.83,179.76 208.83,180.09 207.60,180.21 207.61,186.61" rightOfWay="edgePriority">
        <request index="0" response="000000" foes="001000" cont="0"/>
        <request index="1" response="110000" foes="111000" cont="1"/>
        <request index="2" response="100000" foes="100000" cont="0"/>
        <request index="3" response="100011" foes="100011" cont="0"/>
        <request index="4" response="000000" foes="000010" cont="0"/>
        <request index="5" response="000000" foes="001110" cont="0"/>
    </junction>
    <junction id="junction-south" type="priority" x="286.61" y="0.25" incLanes="edge-south-NS_0 edge-south-side-2_0" intLanes=":junction-south_0_0 :junction-south_1_0" shape="283.42,3.45 289.82,3.42 289.10,-0.12 288.21,-1.36 286.97,-2.24 285.38,-2.77 283.43,-2.95">
        <request index="0" response="00" foes="00" cont="0"/>
        <request index="1" response="00" foes="00" cont="0"/>
    </junction>
    <junction id="junction-west" type="dead_end" x="0.00" y="183.59" incLanes="edge-west-EW_0" intLanes="" shape="-0.00,183.59 0.00,186.79 -0.00,183.59"/>

    <junction id=":junction-intersection_6_0" type="internal" x="216.41" y="183.40" incLanes=":junction-intersection_1_0 edge-west-WE_0" intLanes=":junction-intersection_3_0 :junction-intersection_4_0 :junction-intersection_5_0"/>

    <connection from="-edge-dead-end" to="edge-south-side-2" fromLane="0" toLane="0" via=":gneJ3_0_0" dir="l" state="M"/>
    <connection from="edge-east-EW" to="edge-west-EW" fromLane="0" toLane="0" via=":junction-intersection_0_0" dir="s" state="M"/>
    <connection from="edge-east-EW" to="edge-south-NS" fromLane="0" toLane="0" via=":junction-intersection_1_0" dir="l" state="m"/>
    <connection from="edge-south-NS" to="edge-south-NS.493" fromLane="0" toLane="0" via=":junction-south_0_0" dir="r" state="M"/>
    <connection from="edge-south-NS.493" to="edge-dead-end" fromLane="0" toLane="0" via=":gneJ3_1_0" dir="r" state="M"/>
    <connection from="edge-south-SN" to="edge-east-WE" fromLane="0" toLane="0" via=":junction-intersection_2_0" dir="r" state="m"/>
    <connection from="edge-south-SN" to="edge-west-EW" fromLane="0" toLane="0" via=":junction-intersection_3_0" dir="l" state="m"/>
    <connection from="edge-south-side-2" to="edge-south-SN" fromLane="0" toLane="0" via=":junction-south_1_0" dir="l" state="M"/>
    <connection from="edge-west-WE" to="edge-south-NS" fromLane="0" toLane="0" via=":junction-intersection_4_0" dir="r" state="M"/>
    <connection from="edge-west-WE" to="edge-east-WE" fromLane="0" toLane="0" via=":junction-intersection_5_0" dir="s" state="M"/>

    <connection from=":gneJ3_0" to="edge-south-side-2" fromLane="0" toLane="0" dir="l" state="M"/>
    <connection from=":gneJ3_1" to="edge-dead-end" fromLane="0" toLane="0" dir="r" state="M"/>
    <connection from=":junction-intersection_0" to="edge-west-EW" fromLane="0" toLane="0" dir="s" state="M"/>
    <connection from=":junction-intersection_1" to="edge-south-NS" fromLane="0" toLane="0" via=":junction-intersection_6_0" dir="l" state="m"/>
    <connection from=":junction-intersection_6" to="edge-south-NS" fromLane="0" toLane="0" dir="l" state="M"/>
    <connection from=":junction-intersection_2" to="edge-east-WE" fromLane="0" toLane="0" dir="r" state="M"/>
    <connection from=":junction-intersection_3" to="edge-west-EW" fromLane="0" toLane="0" dir="l" state="M"/>
    <connection from=":junction-intersection_4" to="edge-south-NS" fromLane="0" toLane="0" dir="r" state="M"/>
    <connection from=":junction-intersection_5" to="edge-east-WE" fromLane="0" toLane="0" dir="s" state="M"/>
    <connection from=":junction-south_0" to="edge-south-NS.493" fromLane="0" toLane="0" dir="r" state="M"/>
    <connection from=":junction-south_1" to="edge-south-SN" fromLane="0" toLane="0" dir="l" state="M"/>

</net>
