<?xml version="1.0" encoding="UTF-8"?>

<!-- generated on 2021-07-02 16:59:43 by Eclipse SUMO duarouter Version 1.9.2
<configuration xmlns:xsi="http://www.w3.org/2001/XMLSchema-instance" xsi:noNamespaceSchemaLocation="http://sumo.dlr.de/xsd/duarouterConfiguration.xsd">

    <input>
        <net-file value="/home/dikshant/github/SMARTS-lite/ultra/ultra/scenarios/task0-3agents/train_easy_2lane_t_100kmh_low-density-flow-8/map.net.xml"/>
        <route-files value="/tmp/tmp6whhiyif/trips.trips.xml"/>
    </input>

    <output>
        <output-file value="/home/dikshant/github/SMARTS-lite/ultra/ultra/scenarios/task0-3agents/train_easy_2lane_t_100kmh_low-density-flow-8/traffic/all.rou.xml"/>
        <alternatives-output value="/home/dikshant/github/SMARTS-lite/ultra/ultra/scenarios/task0-3agents/train_easy_2lane_t_100kmh_low-density-flow-8/traffic/all.rou.alt.xml"/>
    </output>

    <processing>
        <unsorted-input value="true"/>
        <repair value="true"/>
    </processing>

    <report>
        <error-log value="/home/dikshant/.smarts/_duarouter_routing/traffic/all.log"/>
        <no-step-log value="true"/>
    </report>

    <random_number>
        <seed value="2"/>
    </random_number>

</configuration>
-->

<routes xmlns:xsi="http://www.w3.org/2001/XMLSchema-instance" xsi:noNamespaceSchemaLocation="http://sumo.dlr.de/xsd/routes_file.xsd">
    <vType id="actor-default-8428535110920721299" minGap="2.47" maxSpeed="55.50" speedFactor="normc(1.00,0.05,0.20,2.00)" vClass="passenger" accel="3.0" decel="7.5" sigma="0.6169083368087951"/>
    <vehicle id="default-flow-route-edge-west-WE_0_base-edge-east-WE_0_max-2687663782944925712---5907300214998735174--200-0.0" type="actor-default-8428535110920721299" depart="5.00" departLane="0" departPos="base" departSpeed="max" arrivalLane="0" arrivalPos="max">
        <route edges="edge-west-WE edge-east-WE"/>
    </vehicle>
    <vehicle id="default-flow-route-edge-south-SN_0_base-edge-west-EW_0_max-5300197766295664133---5907300214998735174--0-0.0" type="actor-default-8428535110920721299" depart="6.00" departLane="0" departPos="base" departSpeed="max" arrivalLane="0" arrivalPos="max">
        <route edges="edge-south-SN edge-west-EW"/>
    </vehicle>
    <vehicle id="default-flow-route-edge-south-SN_0_base-edge-east-WE_0_max-8244950901942147493---5907300214998735174--100-0.0" type="actor-default-8428535110920721299" depart="11.00" departLane="0" departPos="base" departSpeed="max" arrivalLane="0" arrivalPos="max">
        <route edges="edge-south-SN edge-east-WE"/>
    </vehicle>
    <vehicle id="default-flow-route-edge-south-SN_0_base-edge-east-WE_0_max-8244950901942147493---5907300214998735174--101-0.0" type="actor-default-8428535110920721299" depart="15.00" departLane="0" departPos="base" departSpeed="max" arrivalLane="0" arrivalPos="max">
        <route edges="edge-south-SN edge-east-WE"/>
    </vehicle>
    <vehicle id="default-flow-route-edge-west-WE_0_base-edge-east-WE_0_max-2687663782944925712---5907300214998735174--201-0.0" type="actor-default-8428535110920721299" depart="17.00" departLane="0" departPos="base" departSpeed="max" arrivalLane="0" arrivalPos="max">
        <route edges="edge-west-WE edge-east-WE"/>
    </vehicle>
    <vehicle id="default-flow-route-edge-east-EW_0_base-edge-south-NS_0_max--2875108468816713986---5907300214998735174--2300-0.0" type="actor-default-8428535110920721299" depart="20.00" departLane="0" departPos="base" departSpeed="max" arrivalLane="0" arrivalPos="max">
        <route edges="edge-east-EW edge-south-NS"/>
    </vehicle>
    <vehicle id="default-flow-route-edge-south-SN_0_base-edge-east-WE_0_max-8244950901942147493---5907300214998735174--102-0.0" type="actor-default-8428535110920721299" depart="39.00" departLane="0" departPos="base" departSpeed="max" arrivalLane="0" arrivalPos="max">
        <route edges="edge-south-SN edge-east-WE"/>
    </vehicle>
    <vehicle id="default-flow-route-edge-south-SN_0_base-edge-east-WE_0_max-8244950901942147493---5907300214998735174--103-0.0" type="actor-default-8428535110920721299" depart="43.00" departLane="0" departPos="base" departSpeed="max" arrivalLane="0" arrivalPos="max">
        <route edges="edge-south-SN edge-east-WE"/>
    </vehicle>
    <vehicle id="default-flow-route-edge-east-EW_0_base-edge-south-NS_0_max--2875108468816713986---5907300214998735174--2301-0.0" type="actor-default-8428535110920721299" depart="51.00" departLane="0" departPos="base" departSpeed="max" arrivalLane="0" arrivalPos="max">
        <route edges="edge-east-EW edge-south-NS"/>
    </vehicle>
    <vehicle id="default-flow-route-edge-south-SN_0_base-edge-west-EW_0_max-5300197766295664133---5907300214998735174--1-0.0" type="actor-default-8428535110920721299" depart="65.00" departLane="0" departPos="base" departSpeed="max" arrivalLane="0" arrivalPos="max">
        <route edges="edge-south-SN edge-west-EW"/>
    </vehicle>
    <vehicle id="default-flow-route-edge-west-WE_0_base-edge-east-WE_0_max-2687663782944925712---5907300214998735174--202-0.0" type="actor-default-8428535110920721299" depart="76.00" departLane="0" departPos="base" departSpeed="max" arrivalLane="0" arrivalPos="max">
        <route edges="edge-west-WE edge-east-WE"/>
    </vehicle>
    <vehicle id="default-flow-route-edge-south-SN_0_base-edge-west-EW_0_max-5300197766295664133---5907300214998735174--2-0.0" type="actor-default-8428535110920721299" depart="99.00" departLane="0" departPos="base" departSpeed="max" arrivalLane="0" arrivalPos="max">
        <route edges="edge-south-SN edge-west-EW"/>
    </vehicle>
    <vehicle id="default-flow-route-edge-west-WE_0_base-edge-east-WE_0_max-2687663782944925712---5907300214998735174--203-0.0" type="actor-default-8428535110920721299" depart="103.00" departLane="0" departPos="base" departSpeed="max" arrivalLane="0" arrivalPos="max">
        <route edges="edge-west-WE edge-east-WE"/>
    </vehicle>
    <vehicle id="default-flow-route-edge-west-WE_0_base-edge-south-NS_0_max-6665828535265219897---5907300214998735174--1200-0.0" type="actor-default-8428535110920721299" depart="112.00" departLane="0" departPos="base" departSpeed="max" arrivalLane="0" arrivalPos="max">
        <route edges="edge-west-WE edge-south-NS"/>
    </vehicle>
    <vehicle id="default-flow-route-edge-south-SN_0_base-edge-west-EW_0_max-5300197766295664133---5907300214998735174--3-0.0" type="actor-default-8428535110920721299" depart="114.00" departLane="0" departPos="base" departSpeed="max" arrivalLane="0" arrivalPos="max">
        <route edges="edge-south-SN edge-west-EW"/>
    </vehicle>
    <vType id="actor-aggressive--3112906710793366138" minGap="0.86" maxSpeed="55.50" speedFactor="normc(1.50,0.10,0.20,2.00)" vClass="passenger" impatience="0.98" lcStrategic="10" lcSpeedGain="200" lcPushy="1.0" lcImpatience="1.0" lcTimeToImpatience="0.01" lcLookaheadLeft="0.0" lcOvertakeRight="1" jmIgnoreFoeProb="0.98" jmTimegapMinor="0.1" accel="10.0" decel="10.0" sigma="0.18351485796673622"/>
    <vehicle id="aggressive-flow-route-edge-west-WE_0_base-edge-south-NS_0_max-6665828535265219897---8072208420414452542--1201-0.0" type="actor-aggressive--3112906710793366138" depart="116.00" departLane="0" departPos="base" departSpeed="max" arrivalLane="0" arrivalPos="max">
        <route edges="edge-west-WE edge-south-NS"/>
    </vehicle>
    <vehicle id="default-flow-route-edge-south-SN_0_base-edge-east-WE_0_max-8244950901942147493---5907300214998735174--104-0.0" type="actor-default-8428535110920721299" depart="125.00" departLane="0" departPos="base" departSpeed="max" arrivalLane="0" arrivalPos="max">
        <route edges="edge-south-SN edge-east-WE"/>
    </vehicle>
    <vehicle id="default-flow-route-edge-west-WE_0_base-edge-south-NS_0_max-6665828535265219897---5907300214998735174--1202-0.0" type="actor-default-8428535110920721299" depart="146.00" departLane="0" departPos="base" departSpeed="max" arrivalLane="0" arrivalPos="max">
        <route edges="edge-west-WE edge-south-NS"/>
    </vehicle>
    <vehicle id="default-flow-route-edge-east-EW_0_base-edge-south-NS_0_max--2875108468816713986---5907300214998735174--2302-0.0" type="actor-default-8428535110920721299" depart="147.00" departLane="0" departPos="base" departSpeed="max" arrivalLane="0" arrivalPos="max">
        <route edges="edge-east-EW edge-south-NS"/>
    </vehicle>
    <vehicle id="default-flow-route-edge-south-SN_0_base-edge-west-EW_0_max-5300197766295664133---5907300214998735174--4-0.0" type="actor-default-8428535110920721299" depart="153.00" departLane="0" departPos="base" departSpeed="max" arrivalLane="0" arrivalPos="max">
        <route edges="edge-south-SN edge-west-EW"/>
    </vehicle>
    <vehicle id="default-flow-route-edge-west-WE_0_base-edge-east-WE_0_max-2687663782944925712---5907300214998735174--204-0.0" type="actor-default-8428535110920721299" depart="157.00" departLane="0" departPos="base" departSpeed="max" arrivalLane="0" arrivalPos="max">
        <route edges="edge-west-WE edge-east-WE"/>
    </vehicle>
    <vehicle id="default-flow-route-edge-west-WE_0_base-edge-east-WE_0_max-2687663782944925712---5907300214998735174--205-0.0" type="actor-default-8428535110920721299" depart="180.00" departLane="0" departPos="base" departSpeed="max" arrivalLane="0" arrivalPos="max">
        <route edges="edge-west-WE edge-east-WE"/>
    </vehicle>
    <vehicle id="default-flow-route-edge-south-SN_0_base-edge-west-EW_0_max-5300197766295664133---5907300214998735174--5-0.0" type="actor-default-8428535110920721299" depart="199.00" departLane="0" departPos="base" departSpeed="max" arrivalLane="0" arrivalPos="max">
        <route edges="edge-south-SN edge-west-EW"/>
    </vehicle>
    <vehicle id="default-flow-route-edge-west-WE_0_base-edge-south-NS_0_max-6665828535265219897---5907300214998735174--1203-0.0" type="actor-default-8428535110920721299" depart="200.00" departLane="0" departPos="base" departSpeed="max" arrivalLane="0" arrivalPos="max">
        <route edges="edge-west-WE edge-south-NS"/>
    </vehicle>
    <vehicle id="default-flow-route-edge-south-SN_0_base-edge-west-EW_0_max-5300197766295664133---5907300214998735174--6-0.0" type="actor-default-8428535110920721299" depart="204.00" departLane="0" departPos="base" departSpeed="max" arrivalLane="0" arrivalPos="max">
        <route edges="edge-south-SN edge-west-EW"/>
    </vehicle>
    <vehicle id="default-flow-route-edge-south-SN_0_base-edge-west-EW_0_max-5300197766295664133---5907300214998735174--7-0.0" type="actor-default-8428535110920721299" depart="208.00" departLane="0" departPos="base" departSpeed="max" arrivalLane="0" arrivalPos="max">
        <route edges="edge-south-SN edge-west-EW"/>
    </vehicle>
    <vehicle id="default-flow-route-edge-east-EW_0_base-edge-west-EW_0_max--5086927571264510017---5907300214998735174--1300-0.0" type="actor-default-8428535110920721299" depart="211.00" departLane="0" departPos="base" departSpeed="max" arrivalLane="0" arrivalPos="max">
        <route edges="edge-east-EW edge-west-EW"/>
    </vehicle>
    <vehicle id="default-flow-route-edge-east-EW_0_base-edge-west-EW_0_max--5086927571264510017---5907300214998735174--1301-0.0" type="actor-default-8428535110920721299" depart="244.00" departLane="0" departPos="base" departSpeed="max" arrivalLane="0" arrivalPos="max">
        <route edges="edge-east-EW edge-west-EW"/>
    </vehicle>
    <vehicle id="default-flow-route-edge-west-WE_0_base-edge-east-WE_0_max-2687663782944925712---5907300214998735174--206-0.0" type="actor-default-8428535110920721299" depart="249.00" departLane="0" departPos="base" departSpeed="max" arrivalLane="0" arrivalPos="max">
        <route edges="edge-west-WE edge-east-WE"/>
    </vehicle>
    <vehicle id="default-flow-route-edge-west-WE_0_base-edge-south-NS_0_max-6665828535265219897---5907300214998735174--1204-0.0" type="actor-default-8428535110920721299" depart="280.00" departLane="0" departPos="base" departSpeed="max" arrivalLane="0" arrivalPos="max">
        <route edges="edge-west-WE edge-south-NS"/>
    </vehicle>
    <vehicle id="default-flow-route-edge-east-EW_0_base-edge-south-NS_0_max--2875108468816713986---5907300214998735174--2303-0.0" type="actor-default-8428535110920721299" depart="291.00" departLane="0" departPos="base" departSpeed="max" arrivalLane="0" arrivalPos="max">
        <route edges="edge-east-EW edge-south-NS"/>
    </vehicle>
    <vehicle id="default-flow-route-edge-west-WE_0_base-edge-east-WE_0_max-2687663782944925712---5907300214998735174--207-0.0" type="actor-default-8428535110920721299" depart="306.00" departLane="0" departPos="base" departSpeed="max" arrivalLane="0" arrivalPos="max">
        <route edges="edge-west-WE edge-east-WE"/>
    </vehicle>
    <vehicle id="default-flow-route-edge-south-SN_0_base-edge-east-WE_0_max-8244950901942147493---5907300214998735174--105-0.0" type="actor-default-8428535110920721299" depart="309.00" departLane="0" departPos="base" departSpeed="max" arrivalLane="0" arrivalPos="max">
        <route edges="edge-south-SN edge-east-WE"/>
    </vehicle>
    <vType id="actor-blocker--8230961496353946641" minGap="0.92" maxSpeed="55.50" speedFactor="normc(0.20,0.10,0.20,2.00)" vClass="passenger" impatience="0.00" lcStrategic="0" lcCooperative="0.0" lcSpeedGain="1" lcKeepRight="0.0" lcOpposite="0" lcPushy="0" lcImpatience="0.0" lcTimeToImpatience="1000" lcOvertakeRight="0" jmIgnoreFoeProb="0.0" jmTimegapMinor="1.0" accel="3.0" decel="7.5" sigma="0"/>
    <vehicle id="blocker-flow-route-edge-west-WE_0_base-edge-east-WE_0_max-2687663782944925712---1115217990124036755--208-0.0" type="actor-blocker--8230961496353946641" depart="343.00" departLane="0" departPos="base" departSpeed="max" arrivalLane="0" arrivalPos="max">
        <route edges="edge-west-WE edge-east-WE"/>
    </vehicle>
    <vehicle id="default-flow-route-edge-west-WE_0_base-edge-south-NS_0_max-6665828535265219897---5907300214998735174--1205-0.0" type="actor-default-8428535110920721299" depart="347.00" departLane="0" departPos="base" departSpeed="max" arrivalLane="0" arrivalPos="max">
        <route edges="edge-west-WE edge-south-NS"/>
    </vehicle>
    <vehicle id="default-flow-route-edge-east-EW_0_base-edge-west-EW_0_max--5086927571264510017---5907300214998735174--1302-0.0" type="actor-default-8428535110920721299" depart="349.00" departLane="0" departPos="base" departSpeed="max" arrivalLane="0" arrivalPos="max">
        <route edges="edge-east-EW edge-west-EW"/>
    </vehicle>
    <vehicle id="default-flow-route-edge-east-EW_0_base-edge-west-EW_0_max--5086927571264510017---5907300214998735174--1303-0.0" type="actor-default-8428535110920721299" depart="352.00" departLane="0" departPos="base" departSpeed="max" arrivalLane="0" arrivalPos="max">
        <route edges="edge-east-EW edge-west-EW"/>
    </vehicle>
    <vehicle id="default-flow-route-edge-south-SN_0_base-edge-west-EW_0_max-5300197766295664133---5907300214998735174--8-0.0" type="actor-default-8428535110920721299" depart="370.00" departLane="0" departPos="base" departSpeed="max" arrivalLane="0" arrivalPos="max">
        <route edges="edge-south-SN edge-west-EW"/>
    </vehicle>
    <vehicle id="default-flow-route-edge-south-SN_0_base-edge-west-EW_0_max-5300197766295664133---5907300214998735174--9-0.0" type="actor-default-8428535110920721299" depart="373.00" departLane="0" departPos="base" departSpeed="max" arrivalLane="0" arrivalPos="max">
        <route edges="edge-south-SN edge-west-EW"/>
    </vehicle>
    <vehicle id="default-flow-route-edge-west-WE_0_base-edge-south-NS_0_max-6665828535265219897---5907300214998735174--1206-0.0" type="actor-default-8428535110920721299" depart="377.00" departLane="0" departPos="base" departSpeed="max" arrivalLane="0" arrivalPos="max">
        <route edges="edge-west-WE edge-south-NS"/>
    </vehicle>
    <vehicle id="default-flow-route-edge-south-SN_0_base-edge-east-WE_0_max-8244950901942147493---5907300214998735174--106-0.0" type="actor-default-8428535110920721299" depart="378.00" departLane="0" departPos="base" departSpeed="max" arrivalLane="0" arrivalPos="max">
        <route edges="edge-south-SN edge-east-WE"/>
    </vehicle>
    <vehicle id="default-flow-route-edge-east-EW_0_base-edge-west-EW_0_max--5086927571264510017---5907300214998735174--1304-0.0" type="actor-default-8428535110920721299" depart="381.00" departLane="0" departPos="base" departSpeed="max" arrivalLane="0" arrivalPos="max">
        <route edges="edge-east-EW edge-west-EW"/>
    </vehicle>
    <vehicle id="default-flow-route-edge-west-WE_0_base-edge-south-NS_0_max-6665828535265219897---5907300214998735174--1207-0.0" type="actor-default-8428535110920721299" depart="394.00" departLane="0" departPos="base" departSpeed="max" arrivalLane="0" arrivalPos="max">
        <route edges="edge-west-WE edge-south-NS"/>
    </vehicle>
    <vehicle id="default-flow-route-edge-south-SN_0_base-edge-west-EW_0_max-5300197766295664133---5907300214998735174--10-0.0" type="actor-default-8428535110920721299" depart="409.00" departLane="0" departPos="base" departSpeed="max" arrivalLane="0" arrivalPos="max">
        <route edges="edge-south-SN edge-west-EW"/>
    </vehicle>
    <vehicle id="default-flow-route-edge-west-WE_0_base-edge-east-WE_0_max-2687663782944925712---5907300214998735174--209-0.0" type="actor-default-8428535110920721299" depart="413.00" departLane="0" departPos="base" departSpeed="max" arrivalLane="0" arrivalPos="max">
        <route edges="edge-west-WE edge-east-WE"/>
    </vehicle>
    <vehicle id="default-flow-route-edge-east-EW_0_base-edge-west-EW_0_max--5086927571264510017---5907300214998735174--1305-0.0" type="actor-default-8428535110920721299" depart="417.00" departLane="0" departPos="base" departSpeed="max" arrivalLane="0" arrivalPos="max">
        <route edges="edge-east-EW edge-west-EW"/>
    </vehicle>
    <vehicle id="default-flow-route-edge-south-SN_0_base-edge-west-EW_0_max-5300197766295664133---5907300214998735174--11-0.0" type="actor-default-8428535110920721299" depart="418.00" departLane="0" departPos="base" departSpeed="max" arrivalLane="0" arrivalPos="max">
        <route edges="edge-south-SN edge-west-EW"/>
    </vehicle>
    <vehicle id="default-flow-route-edge-east-EW_0_base-edge-south-NS_0_max--2875108468816713986---5907300214998735174--2304-0.0" type="actor-default-8428535110920721299" depart="419.00" departLane="0" departPos="base" departSpeed="max" arrivalLane="0" arrivalPos="max">
        <route edges="edge-east-EW edge-south-NS"/>
    </vehicle>
    <vehicle id="default-flow-route-edge-south-SN_0_base-edge-west-EW_0_max-5300197766295664133---5907300214998735174--12-0.0" type="actor-default-8428535110920721299" depart="424.00" departLane="0" departPos="base" departSpeed="max" arrivalLane="0" arrivalPos="max">
        <route edges="edge-south-SN edge-west-EW"/>
    </vehicle>
    <vType id="actor-cautious--4041075678955137729" minGap="5.01" maxSpeed="55.50" speedFactor="normc(0.40,0.10,0.20,2.00)" vClass="passenger" impatience="0.00" lcStrategic="1" lcSpeedGain="1" lcKeepRight="1" lcPushy="0.2" lcImpatience="0" lcLookaheadLeft="2.9" lcOvertakeRight="0" jmIgnoreFoeProb="0.0" jmTimegapMinor="1.0" accel="3.0" decel="10.0" sigma="0.5197429810615581"/>
    <vehicle id="cautious-flow-route-edge-west-WE_0_base-edge-east-WE_0_max-2687663782944925712--4891670136923151219--210-0.0" type="actor-cautious--4041075678955137729" depart="432.00" departLane="0" departPos="base" departSpeed="max" arrivalLane="0" arrivalPos="max">
        <route edges="edge-west-WE edge-east-WE"/>
    </vehicle>
    <vehicle id="default-flow-route-edge-east-EW_0_base-edge-west-EW_0_max--5086927571264510017---5907300214998735174--1306-0.0" type="actor-default-8428535110920721299" depart="437.00" departLane="0" departPos="base" departSpeed="max" arrivalLane="0" arrivalPos="max">
        <route edges="edge-east-EW edge-west-EW"/>
    </vehicle>
    <vehicle id="default-flow-route-edge-south-SN_0_base-edge-west-EW_0_max-5300197766295664133---5907300214998735174--13-0.0" type="actor-default-8428535110920721299" depart="459.00" departLane="0" departPos="base" departSpeed="max" arrivalLane="0" arrivalPos="max">
        <route edges="edge-south-SN edge-west-EW"/>
    </vehicle>
    <vehicle id="blocker-flow-route-edge-east-EW_0_base-edge-west-EW_0_max--5086927571264510017---1115217990124036755--1307-0.0" type="actor-blocker--8230961496353946641" depart="468.00" departLane="0" departPos="base" departSpeed="max" arrivalLane="0" arrivalPos="max">
        <route edges="edge-east-EW edge-west-EW"/>
    </vehicle>
    <vehicle id="default-flow-route-edge-south-SN_0_base-edge-west-EW_0_max-5300197766295664133---5907300214998735174--14-0.0" type="actor-default-8428535110920721299" depart="468.00" departLane="0" departPos="base" departSpeed="max" arrivalLane="0" arrivalPos="max">
        <route edges="edge-south-SN edge-west-EW"/>
    </vehicle>
    <vehicle id="default-flow-route-edge-south-SN_0_base-edge-west-EW_0_max-5300197766295664133---5907300214998735174--15-0.0" type="actor-default-8428535110920721299" depart="469.00" departLane="0" departPos="base" departSpeed="max" arrivalLane="0" arrivalPos="max">
        <route edges="edge-south-SN edge-west-EW"/>
    </vehicle>
    <vehicle id="default-flow-route-edge-west-WE_0_base-edge-east-WE_0_max-2687663782944925712---5907300214998735174--211-0.0" type="actor-default-8428535110920721299" depart="480.00" departLane="0" departPos="base" departSpeed="max" arrivalLane="0" arrivalPos="max">
        <route edges="edge-west-WE edge-east-WE"/>
    </vehicle>
    <vehicle id="default-flow-route-edge-south-SN_0_base-edge-east-WE_0_max-8244950901942147493---5907300214998735174--107-0.0" type="actor-default-8428535110920721299" depart="490.00" departLane="0" departPos="base" departSpeed="max" arrivalLane="0" arrivalPos="max">
        <route edges="edge-south-SN edge-east-WE"/>
    </vehicle>
    <vehicle id="default-flow-route-edge-east-EW_0_base-edge-west-EW_0_max--5086927571264510017---5907300214998735174--1308-0.0" type="actor-default-8428535110920721299" depart="499.00" departLane="0" departPos="base" departSpeed="max" arrivalLane="0" arrivalPos="max">
        <route edges="edge-east-EW edge-west-EW"/>
    </vehicle>
    <vehicle id="blocker-flow-route-edge-south-SN_0_base-edge-east-WE_0_max-8244950901942147493---1115217990124036755--108-0.0" type="actor-blocker--8230961496353946641" depart="507.00" departLane="0" departPos="base" departSpeed="max" arrivalLane="0" arrivalPos="max">
        <route edges="edge-south-SN edge-east-WE"/>
    </vehicle>
    <vehicle id="default-flow-route-edge-west-WE_0_base-edge-south-NS_0_max-6665828535265219897---5907300214998735174--1208-0.0" type="actor-default-8428535110920721299" depart="525.00" departLane="0" departPos="base" departSpeed="max" arrivalLane="0" arrivalPos="max">
        <route edges="edge-west-WE edge-south-NS"/>
    </vehicle>
    <vehicle id="default-flow-route-edge-east-EW_0_base-edge-south-NS_0_max--2875108468816713986---5907300214998735174--2305-0.0" type="actor-default-8428535110920721299" depart="534.00" departLane="0" departPos="base" departSpeed="max" arrivalLane="0" arrivalPos="max">
        <route edges="edge-east-EW edge-south-NS"/>
    </vehicle>
    <vehicle id="default-flow-route-edge-south-SN_0_base-edge-west-EW_0_max-5300197766295664133---5907300214998735174--16-0.0" type="actor-default-8428535110920721299" depart="537.00" departLane="0" departPos="base" departSpeed="max" arrivalLane="0" arrivalPos="max">
        <route edges="edge-south-SN edge-west-EW"/>
    </vehicle>
    <vehicle id="aggressive-flow-route-edge-south-SN_0_base-edge-west-EW_0_max-5300197766295664133---8072208420414452542--17-0.0" type="actor-aggressive--3112906710793366138" depart="566.00" departLane="0" departPos="base" departSpeed="max" arrivalLane="0" arrivalPos="max">
        <route edges="edge-south-SN edge-west-EW"/>
    </vehicle>
    <vehicle id="default-flow-route-edge-west-WE_0_base-edge-east-WE_0_max-2687663782944925712---5907300214998735174--212-0.0" type="actor-default-8428535110920721299" depart="575.00" departLane="0" departPos="base" departSpeed="max" arrivalLane="0" arrivalPos="max">
        <route edges="edge-west-WE edge-east-WE"/>
    </vehicle>
    <vehicle id="default-flow-route-edge-south-SN_0_base-edge-east-WE_0_max-8244950901942147493---5907300214998735174--109-0.0" type="actor-default-8428535110920721299" depart="589.00" departLane="0" departPos="base" departSpeed="max" arrivalLane="0" arrivalPos="max">
        <route edges="edge-south-SN edge-east-WE"/>
    </vehicle>
    <vehicle id="default-flow-route-edge-east-EW_0_base-edge-south-NS_0_max--2875108468816713986---5907300214998735174--2306-0.0" type="actor-default-8428535110920721299" depart="592.00" departLane="0" departPos="base" departSpeed="max" arrivalLane="0" arrivalPos="max">
        <route edges="edge-east-EW edge-south-NS"/>
    </vehicle>
    <vehicle id="default-flow-route-edge-west-WE_0_base-edge-south-NS_0_max-6665828535265219897---5907300214998735174--1209-0.0" type="actor-default-8428535110920721299" depart="593.00" departLane="0" departPos="base" departSpeed="max" arrivalLane="0" arrivalPos="max">
        <route edges="edge-west-WE edge-south-NS"/>
    </vehicle>
    <vehicle id="default-flow-route-edge-east-EW_0_base-edge-south-NS_0_max--2875108468816713986---5907300214998735174--2307-0.0" type="actor-default-8428535110920721299" depart="601.00" departLane="0" departPos="base" departSpeed="max" arrivalLane="0" arrivalPos="max">
        <route edges="edge-east-EW edge-south-NS"/>
    </vehicle>
    <vehicle id="default-flow-route-edge-south-SN_0_base-edge-east-WE_0_max-8244950901942147493---5907300214998735174--110-0.0" type="actor-default-8428535110920721299" depart="602.00" departLane="0" departPos="base" departSpeed="max" arrivalLane="0" arrivalPos="max">
        <route edges="edge-south-SN edge-east-WE"/>
    </vehicle>
    <vehicle id="default-flow-route-edge-south-SN_0_base-edge-west-EW_0_max-5300197766295664133---5907300214998735174--18-0.0" type="actor-default-8428535110920721299" depart="602.00" departLane="0" departPos="base" departSpeed="max" arrivalLane="0" arrivalPos="max">
        <route edges="edge-south-SN edge-west-EW"/>
    </vehicle>
    <vehicle id="default-flow-route-edge-west-WE_0_base-edge-east-WE_0_max-2687663782944925712---5907300214998735174--213-0.0" type="actor-default-8428535110920721299" depart="610.00" departLane="0" departPos="base" departSpeed="max" arrivalLane="0" arrivalPos="max">
        <route edges="edge-west-WE edge-east-WE"/>
    </vehicle>
    <vehicle id="cautious-flow-route-edge-west-WE_0_base-edge-east-WE_0_max-2687663782944925712--4891670136923151219--214-0.0" type="actor-cautious--4041075678955137729" depart="613.00" departLane="0" departPos="base" departSpeed="max" arrivalLane="0" arrivalPos="max">
        <route edges="edge-west-WE edge-east-WE"/>
    </vehicle>
    <vehicle id="default-flow-route-edge-west-WE_0_base-edge-east-WE_0_max-2687663782944925712---5907300214998735174--215-0.0" type="actor-default-8428535110920721299" depart="619.00" departLane="0" departPos="base" departSpeed="max" arrivalLane="0" arrivalPos="max">
        <route edges="edge-west-WE edge-east-WE"/>
    </vehicle>
    <vehicle id="cautious-flow-route-edge-west-WE_0_base-edge-east-WE_0_max-2687663782944925712--4891670136923151219--216-0.0" type="actor-cautious--4041075678955137729" depart="632.00" departLane="0" departPos="base" departSpeed="max" arrivalLane="0" arrivalPos="max">
        <route edges="edge-west-WE edge-east-WE"/>
    </vehicle>
    <vehicle id="default-flow-route-edge-west-WE_0_base-edge-east-WE_0_max-2687663782944925712---5907300214998735174--217-0.0" type="actor-default-8428535110920721299" depart="639.00" departLane="0" departPos="base" departSpeed="max" arrivalLane="0" arrivalPos="max">
        <route edges="edge-west-WE edge-east-WE"/>
    </vehicle>
    <vehicle id="default-flow-route-edge-south-SN_0_base-edge-east-WE_0_max-8244950901942147493---5907300214998735174--111-0.0" type="actor-default-8428535110920721299" depart="649.00" departLane="0" departPos="base" departSpeed="max" arrivalLane="0" arrivalPos="max">
        <route edges="edge-south-SN edge-east-WE"/>
    </vehicle>
    <vehicle id="default-flow-route-edge-south-SN_0_base-edge-west-EW_0_max-5300197766295664133---5907300214998735174--19-0.0" type="actor-default-8428535110920721299" depart="652.00" departLane="0" departPos="base" departSpeed="max" arrivalLane="0" arrivalPos="max">
        <route edges="edge-south-SN edge-west-EW"/>
    </vehicle>
    <vehicle id="default-flow-route-edge-south-SN_0_base-edge-east-WE_0_max-8244950901942147493---5907300214998735174--112-0.0" type="actor-default-8428535110920721299" depart="658.00" departLane="0" departPos="base" departSpeed="max" arrivalLane="0" arrivalPos="max">
        <route edges="edge-south-SN edge-east-WE"/>
    </vehicle>
    <vehicle id="default-flow-route-edge-south-SN_0_base-edge-east-WE_0_max-8244950901942147493---5907300214998735174--113-0.0" type="actor-default-8428535110920721299" depart="659.00" departLane="0" departPos="base" departSpeed="max" arrivalLane="0" arrivalPos="max">
        <route edges="edge-south-SN edge-east-WE"/>
    </vehicle>
    <vehicle id="cautious-flow-route-edge-west-WE_0_base-edge-south-NS_0_max-6665828535265219897--4891670136923151219--1210-0.0" type="actor-cautious--4041075678955137729" depart="679.00" departLane="0" departPos="base" departSpeed="max" arrivalLane="0" arrivalPos="max">
        <route edges="edge-west-WE edge-south-NS"/>
    </vehicle>
    <vehicle id="blocker-flow-route-edge-west-WE_0_base-edge-east-WE_0_max-2687663782944925712---1115217990124036755--218-0.0" type="actor-blocker--8230961496353946641" depart="687.00" departLane="0" departPos="base" departSpeed="max" arrivalLane="0" arrivalPos="max">
        <route edges="edge-west-WE edge-east-WE"/>
    </vehicle>