<?xml version="1.0" encoding="UTF-8"?>

<!-- generated on 2021-07-01 03:55:18 by Eclipse SUMO duarouter Version 1.9.2
<configuration xmlns:xsi="http://www.w3.org/2001/XMLSchema-instance" xsi:noNamespaceSchemaLocation="http://sumo.dlr.de/xsd/duarouterConfiguration.xsd">

    <input>
        <net-file value="/home/dikshant/github/SMARTS-lite/ultra/ultra/scenarios/task0-3agents/train_easy_2lane_c_50kmh_mid-density-flow-69/map.net.xml"/>
        <route-files value="/tmp/tmpfwc5ub_h/trips.trips.xml"/>
    </input>

    <output>
        <output-file value="/home/dikshant/github/SMARTS-lite/ultra/ultra/scenarios/task0-3agents/train_easy_2lane_c_50kmh_mid-density-flow-69/traffic/all.rou.xml"/>
        <alternatives-output value="/home/dikshant/github/SMARTS-lite/ultra/ultra/scenarios/task0-3agents/train_easy_2lane_c_50kmh_mid-density-flow-69/traffic/all.rou.alt.xml"/>
    </output>

    <processing>
        <unsorted-input value="true"/>
        <repair value="true"/>
    </processing>

    <report>
        <error-log value="/home/dikshant/.smarts/_duarouter_routing/traffic/all.log"/>
        <no-step-log value="true"/>
    </report>

    <random_number>
        <seed value="2"/>
    </random_number>

</configuration>
-->

<routes xmlns:xsi="http://www.w3.org/2001/XMLSchema-instance" xsi:noNamespaceSchemaLocation="http://sumo.dlr.de/xsd/routes_file.xsd">
    <vType id="actor-cautious--6965944383977896862" minGap="4.93" maxSpeed="55.50" speedFactor="normc(0.40,0.10,0.20,2.00)" vClass="passenger" impatience="0.00" lcStrategic="1" lcSpeedGain="1" lcKeepRight="1" lcPushy="0.2" lcImpatience="0" lcLookaheadLeft="2.9" lcOvertakeRight="0" jmIgnoreFoeProb="0.0" jmTimegapMinor="1.0" accel="3.0" decel="10.0" sigma="0.5417574289833681"/>
    <vehicle id="cautious-flow-route-edge-north-NS_0_base-edge-south-NS_0_max-6354198324389824595--5651710443200048507--1200-0.0" type="actor-cautious--6965944383977896862" depart="9.00" departLane="0" departPos="base" departSpeed="max" arrivalLane="0" arrivalPos="max">
        <route edges="edge-north-NS edge-south-NS"/>
    </vehicle>
    <vType id="actor-default--7972158289131019312" minGap="2.47" maxSpeed="55.50" speedFactor="normc(1.00,0.05,0.20,2.00)" vClass="passenger" accel="3.0" decel="7.5" sigma="0.6169083368087951"/>
    <vehicle id="default-flow-route-edge-south-SN_0_base-edge-east-WE_0_max-8376576316283808492--8611841271810001168--100-0.0" type="actor-default--7972158289131019312" depart="29.00" departLane="0" departPos="base" departSpeed="max" arrivalLane="0" arrivalPos="max">
        <route edges="edge-south-SN edge-east-WE"/>
    </vehicle>
    <vehicle id="default-flow-route-edge-north-NS_0_base-edge-east-WE_0_max-7619780531447017676--8611841271810001168--2200-0.0" type="actor-default--7972158289131019312" depart="36.00" departLane="0" departPos="base" departSpeed="max" arrivalLane="0" arrivalPos="max">
        <route edges="edge-north-NS edge-east-WE"/>
    </vehicle>
    <vehicle id="default-flow-route-edge-north-NS_0_base-edge-south-NS_0_max-6354198324389824595--8611841271810001168--1201-0.0" type="actor-default--7972158289131019312" depart="36.00" departLane="0" departPos="base" departSpeed="max" arrivalLane="0" arrivalPos="max">
        <route edges="edge-north-NS edge-south-NS"/>
    </vehicle>
    <vehicle id="default-flow-route-edge-north-NS_0_base-edge-east-WE_0_max-7619780531447017676--8611841271810001168--2201-0.0" type="actor-default--7972158289131019312" depart="42.00" departLane="0" departPos="base" departSpeed="max" arrivalLane="0" arrivalPos="max">
        <route edges="edge-north-NS edge-east-WE"/>
    </vehicle>
    <vehicle id="default-flow-route-edge-south-SN_0_base-edge-west-EW_0_max--6409505801511773193--8611841271810001168--0-0.0" type="actor-default--7972158289131019312" depart="47.00" departLane="0" departPos="base" departSpeed="max" arrivalLane="0" arrivalPos="max">
        <route edges="edge-south-SN edge-west-EW"/>
    </vehicle>
    <vehicle id="default-flow-route-edge-north-NS_0_base-edge-west-EW_0_max--9201690798924167721--8611841271810001168--2300-0.0" type="actor-default--7972158289131019312" depart="50.00" departLane="0" departPos="base" departSpeed="max" arrivalLane="0" arrivalPos="max">
        <route edges="edge-north-NS edge-west-EW"/>
    </vehicle>
    <vehicle id="default-flow-route-edge-south-SN_0_base-edge-east-WE_0_max-8376576316283808492--8611841271810001168--101-0.0" type="actor-default--7972158289131019312" depart="56.00" departLane="0" departPos="base" departSpeed="max" arrivalLane="0" arrivalPos="max">
        <route edges="edge-south-SN edge-east-WE"/>
    </vehicle>
    <vehicle id="cautious-flow-route-edge-north-NS_0_base-edge-east-WE_0_max-7619780531447017676--5651710443200048507--2202-0.0" type="actor-cautious--6965944383977896862" depart="60.00" departLane="0" departPos="base" departSpeed="max" arrivalLane="0" arrivalPos="max">
        <route edges="edge-north-NS edge-east-WE"/>
    </vehicle>
    <vType id="actor-blocker-132896880522379009" minGap="1.01" maxSpeed="55.50" speedFactor="normc(0.20,0.10,0.20,2.00)" vClass="passenger" impatience="0.00" lcStrategic="0" lcCooperative="0.0" lcSpeedGain="1" lcKeepRight="0.0" lcOpposite="0" lcPushy="0" lcImpatience="0.0" lcTimeToImpatience="1000" lcOvertakeRight="0" jmIgnoreFoeProb="0.0" jmTimegapMinor="1.0" accel="3.0" decel="7.5" sigma="0.03948596212311631"/>
    <vehicle id="blocker-flow-route-edge-north-NS_0_base-edge-east-WE_0_max-7619780531447017676---3208195399076283168--2203-0.0" type="actor-blocker-132896880522379009" depart="67.00" departLane="0" departPos="base" departSpeed="max" arrivalLane="0" arrivalPos="max">
        <route edges="edge-north-NS edge-east-WE"/>
    </vehicle>
    <vehicle id="default-flow-route-edge-north-NS_0_base-edge-west-EW_0_max--9201690798924167721--8611841271810001168--2301-0.0" type="actor-default--7972158289131019312" depart="76.00" departLane="0" departPos="base" departSpeed="max" arrivalLane="0" arrivalPos="max">
        <route edges="edge-north-NS edge-west-EW"/>
    </vehicle>
    <vehicle id="default-flow-route-edge-north-NS_0_base-edge-east-WE_0_max-7619780531447017676--8611841271810001168--2204-0.0" type="actor-default--7972158289131019312" depart="77.00" departLane="0" departPos="base" departSpeed="max" arrivalLane="0" arrivalPos="max">
        <route edges="edge-north-NS edge-east-WE"/>
    </vehicle>
    <vehicle id="default-flow-route-edge-south-SN_0_base-edge-west-EW_0_max--6409505801511773193--8611841271810001168--1-0.0" type="actor-default--7972158289131019312" depart="79.00" departLane="0" departPos="base" departSpeed="max" arrivalLane="0" arrivalPos="max">
        <route edges="edge-south-SN edge-west-EW"/>
    </vehicle>
    <vehicle id="default-flow-route-edge-north-NS_0_base-edge-west-EW_0_max--9201690798924167721--8611841271810001168--2302-0.0" type="actor-default--7972158289131019312" depart="83.00" departLane="0" departPos="base" departSpeed="max" arrivalLane="0" arrivalPos="max">
        <route edges="edge-north-NS edge-west-EW"/>
    </vehicle>
    <vehicle id="default-flow-route-edge-north-NS_0_base-edge-east-WE_0_max-7619780531447017676--8611841271810001168--2205-0.0" type="actor-default--7972158289131019312" depart="85.00" departLane="0" departPos="base" departSpeed="max" arrivalLane="0" arrivalPos="max">
        <route edges="edge-north-NS edge-east-WE"/>
    </vehicle>
    <vehicle id="default-flow-route-edge-north-NS_0_base-edge-south-NS_0_max-6354198324389824595--8611841271810001168--1202-0.0" type="actor-default--7972158289131019312" depart="87.00" departLane="0" departPos="base" departSpeed="max" arrivalLane="0" arrivalPos="max">
        <route edges="edge-north-NS edge-south-NS"/>
    </vehicle>
    <vehicle id="default-flow-route-edge-south-SN_0_base-edge-north-SN_0_max--3330647475869855925--8611841271810001168--200-0.0" type="actor-default--7972158289131019312" depart="87.00" departLane="0" departPos="base" departSpeed="max" arrivalLane="0" arrivalPos="max">
        <route edges="edge-south-SN edge-north-SN"/>
    </vehicle>
    <vehicle id="default-flow-route-edge-south-SN_0_base-edge-west-EW_0_max--6409505801511773193--8611841271810001168--2-0.0" type="actor-default--7972158289131019312" depart="88.00" departLane="0" departPos="base" departSpeed="max" arrivalLane="0" arrivalPos="max">
        <route edges="edge-south-SN edge-west-EW"/>
    </vehicle>
    <vehicle id="default-flow-route-edge-north-NS_0_base-edge-south-NS_0_max-6354198324389824595--8611841271810001168--1203-0.0" type="actor-default--7972158289131019312" depart="108.00" departLane="0" departPos="base" departSpeed="max" arrivalLane="0" arrivalPos="max">
        <route edges="edge-north-NS edge-south-NS"/>
    </vehicle>
    <vehicle id="default-flow-route-edge-north-NS_0_base-edge-west-EW_0_max--9201690798924167721--8611841271810001168--2303-0.0" type="actor-default--7972158289131019312" depart="115.00" departLane="0" departPos="base" departSpeed="max" arrivalLane="0" arrivalPos="max">
        <route edges="edge-north-NS edge-west-EW"/>
    </vehicle>
    <vType id="actor-aggressive-538156094826588776" minGap="0.92" maxSpeed="55.50" speedFactor="normc(1.50,0.10,0.20,2.00)" vClass="passenger" impatience="0.98" lcStrategic="10" lcSpeedGain="200" lcPushy="1.0" lcImpatience="1.0" lcTimeToImpatience="0.01" lcLookaheadLeft="0.0" lcOvertakeRight="1" jmIgnoreFoeProb="0.98" jmTimegapMinor="0.1" accel="10.0" decel="10.0" sigma="0.05852220948509661"/>
    <vehicle id="aggressive-flow-route-edge-north-NS_0_base-edge-south-NS_0_max-6354198324389824595--1777544607255311857--1204-0.0" type="actor-aggressive-538156094826588776" depart="116.00" departLane="0" departPos="base" departSpeed="max" arrivalLane="0" arrivalPos="max">
        <route edges="edge-north-NS edge-south-NS"/>
    </vehicle>
    <vehicle id="cautious-flow-route-edge-north-NS_0_base-edge-west-EW_0_max--9201690798924167721--5651710443200048507--2304-0.0" type="actor-cautious--6965944383977896862" depart="128.00" departLane="0" departPos="base" departSpeed="max" arrivalLane="0" arrivalPos="max">
        <route edges="edge-north-NS edge-west-EW"/>
    </vehicle>
    <vehicle id="default-flow-route-edge-south-SN_0_base-edge-east-WE_0_max-8376576316283808492--8611841271810001168--102-0.0" type="actor-default--7972158289131019312" depart="131.00" departLane="0" departPos="base" departSpeed="max" arrivalLane="0" arrivalPos="max">
        <route edges="edge-south-SN edge-east-WE"/>
    </vehicle>
    <vehicle id="default-flow-route-edge-south-SN_0_base-edge-east-WE_0_max-8376576316283808492--8611841271810001168--103-0.0" type="actor-default--7972158289131019312" depart="137.00" departLane="0" departPos="base" departSpeed="max" arrivalLane="0" arrivalPos="max">
        <route edges="edge-south-SN edge-east-WE"/>
    </vehicle>
    <vehicle id="cautious-flow-route-edge-south-SN_0_base-edge-east-WE_0_max-8376576316283808492--5651710443200048507--104-0.0" type="actor-cautious--6965944383977896862" depart="151.00" departLane="0" departPos="base" departSpeed="max" arrivalLane="0" arrivalPos="max">
        <route edges="edge-south-SN edge-east-WE"/>
    </vehicle>
    <vehicle id="default-flow-route-edge-south-SN_0_base-edge-north-SN_0_max--3330647475869855925--8611841271810001168--201-0.0" type="actor-default--7972158289131019312" depart="157.00" departLane="0" departPos="base" departSpeed="max" arrivalLane="0" arrivalPos="max">
        <route edges="edge-south-SN edge-north-SN"/>
    </vehicle>
    <vehicle id="default-flow-route-edge-south-SN_0_base-edge-north-SN_0_max--3330647475869855925--8611841271810001168--202-0.0" type="actor-default--7972158289131019312" depart="162.00" departLane="0" departPos="base" departSpeed="max" arrivalLane="0" arrivalPos="max">
        <route edges="edge-south-SN edge-north-SN"/>
    </vehicle>
    <vehicle id="default-flow-route-edge-north-NS_0_base-edge-west-EW_0_max--9201690798924167721--8611841271810001168--2305-0.0" type="actor-default--7972158289131019312" depart="164.00" departLane="0" departPos="base" departSpeed="max" arrivalLane="0" arrivalPos="max">
        <route edges="edge-north-NS edge-west-EW"/>
    </vehicle>
    <vehicle id="default-flow-route-edge-north-NS_0_base-edge-east-WE_0_max-7619780531447017676--8611841271810001168--2206-0.0" type="actor-default--7972158289131019312" depart="169.00" departLane="0" departPos="base" departSpeed="max" arrivalLane="0" arrivalPos="max">
        <route edges="edge-north-NS edge-east-WE"/>
    </vehicle>
    <vehicle id="default-flow-route-edge-south-SN_0_base-edge-east-WE_0_max-8376576316283808492--8611841271810001168--105-0.0" type="actor-default--7972158289131019312" depart="171.00" departLane="0" departPos="base" departSpeed="max" arrivalLane="0" arrivalPos="max">
        <route edges="edge-south-SN edge-east-WE"/>
    </vehicle>
    <vehicle id="aggressive-flow-route-edge-north-NS_0_base-edge-east-WE_0_max-7619780531447017676--1777544607255311857--2207-0.0" type="actor-aggressive-538156094826588776" depart="172.00" departLane="0" departPos="base" departSpeed="max" arrivalLane="0" arrivalPos="max">
        <route edges="edge-north-NS edge-east-WE"/>
    </vehicle>
    <vehicle id="default-flow-route-edge-north-NS_0_base-edge-east-WE_0_max-7619780531447017676--8611841271810001168--2208-0.0" type="actor-default--7972158289131019312" depart="173.00" departLane="0" departPos="base" departSpeed="max" arrivalLane="0" arrivalPos="max">
        <route edges="edge-north-NS edge-east-WE"/>
    </vehicle>
    <vehicle id="default-flow-route-edge-south-SN_0_base-edge-west-EW_0_max--6409505801511773193--8611841271810001168--3-0.0" type="actor-default--7972158289131019312" depart="180.00" departLane="0" departPos="base" departSpeed="max" arrivalLane="0" arrivalPos="max">
        <route edges="edge-south-SN edge-west-EW"/>
    </vehicle>
    <vehicle id="default-flow-route-edge-north-NS_0_base-edge-west-EW_0_max--9201690798924167721--8611841271810001168--2306-0.0" type="actor-default--7972158289131019312" depart="193.00" departLane="0" departPos="base" departSpeed="max" arrivalLane="0" arrivalPos="max">
        <route edges="edge-north-NS edge-west-EW"/>
    </vehicle>
    <vehicle id="cautious-flow-route-edge-north-NS_0_base-edge-south-NS_0_max-6354198324389824595--5651710443200048507--1205-0.0" type="actor-cautious--6965944383977896862" depart="204.00" departLane="0" departPos="base" departSpeed="max" arrivalLane="0" arrivalPos="max">
        <route edges="edge-north-NS edge-south-NS"/>
    </vehicle>
    <vehicle id="default-flow-route-edge-north-NS_0_base-edge-east-WE_0_max-7619780531447017676--8611841271810001168--2209-0.0" type="actor-default--7972158289131019312" depart="208.00" departLane="0" departPos="base" departSpeed="max" arrivalLane="0" arrivalPos="max">
        <route edges="edge-north-NS edge-east-WE"/>
    </vehicle>
    <vehicle id="cautious-flow-route-edge-south-SN_0_base-edge-west-EW_0_max--6409505801511773193--5651710443200048507--4-0.0" type="actor-cautious--6965944383977896862" depart="212.00" departLane="0" departPos="base" departSpeed="max" arrivalLane="0" arrivalPos="max">
        <route edges="edge-south-SN edge-west-EW"/>
    </vehicle>
    <vehicle id="default-flow-route-edge-north-NS_0_base-edge-east-WE_0_max-7619780531447017676--8611841271810001168--2210-0.0" type="actor-default--7972158289131019312" depart="212.00" departLane="0" departPos="base" departSpeed="max" arrivalLane="0" arrivalPos="max">
        <route edges="edge-north-NS edge-east-WE"/>
    </vehicle>
    <vehicle id="aggressive-flow-route-edge-south-SN_0_base-edge-west-EW_0_max--6409505801511773193--1777544607255311857--5-0.0" type="actor-aggressive-538156094826588776" depart="219.00" departLane="0" departPos="base" departSpeed="max" arrivalLane="0" arrivalPos="max">
        <route edges="edge-south-SN edge-west-EW"/>
    </vehicle>
    <vehicle id="aggressive-flow-route-edge-south-SN_0_base-edge-east-WE_0_max-8376576316283808492--1777544607255311857--106-0.0" type="actor-aggressive-538156094826588776" depart="229.00" departLane="0" departPos="base" departSpeed="max" arrivalLane="0" arrivalPos="max">
        <route edges="edge-south-SN edge-east-WE"/>
    </vehicle>
    <vehicle id="default-flow-route-edge-north-NS_0_base-edge-south-NS_0_max-6354198324389824595--8611841271810001168--1206-0.0" type="actor-default--7972158289131019312" depart="239.00" departLane="0" departPos="base" departSpeed="max" arrivalLane="0" arrivalPos="max">
        <route edges="edge-north-NS edge-south-NS"/>
    </vehicle>
    <vehicle id="default-flow-route-edge-south-SN_0_base-edge-west-EW_0_max--6409505801511773193--8611841271810001168--6-0.0" type="actor-default--7972158289131019312" depart="241.00" departLane="0" departPos="base" departSpeed="max" arrivalLane="0" arrivalPos="max">
        <route edges="edge-south-SN edge-west-EW"/>
    </vehicle>
    <vehicle id="default-flow-route-edge-north-NS_0_base-edge-south-NS_0_max-6354198324389824595--8611841271810001168--1207-0.0" type="actor-default--7972158289131019312" depart="242.00" departLane="0" departPos="base" departSpeed="max" arrivalLane="0" arrivalPos="max">
        <route edges="edge-north-NS edge-south-NS"/>
    </vehicle>
    <vehicle id="default-flow-route-edge-north-NS_0_base-edge-east-WE_0_max-7619780531447017676--8611841271810001168--2211-0.0" type="actor-default--7972158289131019312" depart="258.00" departLane="0" departPos="base" departSpeed="max" arrivalLane="0" arrivalPos="max">
        <route edges="edge-north-NS edge-east-WE"/>
    </vehicle>
    <vehicle id="default-flow-route-edge-south-SN_0_base-edge-west-EW_0_max--6409505801511773193--8611841271810001168--7-0.0" type="actor-default--7972158289131019312" depart="258.00" departLane="0" departPos="base" departSpeed="max" arrivalLane="0" arrivalPos="max">
        <route edges="edge-south-SN edge-west-EW"/>
    </vehicle>
    <vehicle id="default-flow-route-edge-south-SN_0_base-edge-north-SN_0_max--3330647475869855925--8611841271810001168--203-0.0" type="actor-default--7972158289131019312" depart="259.00" departLane="0" departPos="base" departSpeed="max" arrivalLane="0" arrivalPos="max">
        <route edges="edge-south-SN edge-north-SN"/>
    </vehicle>
    <vehicle id="default-flow-route-edge-south-SN_0_base-edge-east-WE_0_max-8376576316283808492--8611841271810001168--107-0.0" type="actor-default--7972158289131019312" depart="261.00" departLane="0" departPos="base" departSpeed="max" arrivalLane="0" arrivalPos="max">
        <route edges="edge-south-SN edge-east-WE"/>
    </vehicle>
    <vehicle id="default-flow-route-edge-south-SN_0_base-edge-west-EW_0_max--6409505801511773193--8611841271810001168--8-0.0" type="actor-default--7972158289131019312" depart="261.00" departLane="0" departPos="base" departSpeed="max" arrivalLane="0" arrivalPos="max">
        <route edges="edge-south-SN edge-west-EW"/>
    </vehicle>
    <vehicle id="default-flow-route-edge-south-SN_0_base-edge-north-SN_0_max--3330647475869855925--8611841271810001168--204-0.0" type="actor-default--7972158289131019312" depart="265.00" departLane="0" departPos="base" departSpeed="max" arrivalLane="0" arrivalPos="max">
        <route edges="edge-south-SN edge-north-SN"/>
    </vehicle>
    <vehicle id="default-flow-route-edge-south-SN_0_base-edge-east-WE_0_max-8376576316283808492--8611841271810001168--108-0.0" type="actor-default--7972158289131019312" depart="268.00" departLane="0" departPos="base" departSpeed="max" arrivalLane="0" arrivalPos="max">
        <route edges="edge-south-SN edge-east-WE"/>
    </vehicle>
    <vehicle id="default-flow-route-edge-north-NS_0_base-edge-south-NS_0_max-6354198324389824595--8611841271810001168--1208-0.0" type="actor-default--7972158289131019312" depart="271.00" departLane="0" departPos="base" departSpeed="max" arrivalLane="0" arrivalPos="max">
        <route edges="edge-north-NS edge-south-NS"/>
    </vehicle>
    <vehicle id="cautious-flow-route-edge-north-NS_0_base-edge-south-NS_0_max-6354198324389824595--5651710443200048507--1209-0.0" type="actor-cautious--6965944383977896862" depart="281.00" departLane="0" departPos="base" departSpeed="max" arrivalLane="0" arrivalPos="max">
        <route edges="edge-north-NS edge-south-NS"/>
    </vehicle>
    <vehicle id="default-flow-route-edge-south-SN_0_base-edge-east-WE_0_max-8376576316283808492--8611841271810001168--109-0.0" type="actor-default--7972158289131019312" depart="281.00" departLane="0" departPos="base" departSpeed="max" arrivalLane="0" arrivalPos="max">
        <route edges="edge-south-SN edge-east-WE"/>
    </vehicle>
    <vehicle id="default-flow-route-edge-south-SN_0_base-edge-east-WE_0_max-8376576316283808492--8611841271810001168--110-0.0" type="actor-default--7972158289131019312" depart="284.00" departLane="0" departPos="base" departSpeed="max" arrivalLane="0" arrivalPos="max">
        <route edges="edge-south-SN edge-east-WE"/>
    </vehicle>
    <vehicle id="default-flow-route-edge-north-NS_0_base-edge-south-NS_0_max-6354198324389824595--8611841271810001168--1210-0.0" type="actor-default--7972158289131019312" depart="288.00" departLane="0" departPos="base" departSpeed="max" arrivalLane="0" arrivalPos="max">
        <route edges="edge-north-NS edge-south-NS"/>
    </vehicle>
    <vehicle id="aggressive-flow-route-edge-south-SN_0_base-edge-west-EW_0_max--6409505801511773193--1777544607255311857--9-0.0" type="actor-aggressive-538156094826588776" depart="300.00" departLane="0" departPos="base" departSpeed="max" arrivalLane="0" arrivalPos="max">
        <route edges="edge-south-SN edge-west-EW"/>
    </vehicle>
    <vehicle id="default-flow-route-edge-south-SN_0_base-edge-east-WE_0_max-8376576316283808492--8611841271810001168--111-0.0" type="actor-default--7972158289131019312" depart="302.00" departLane="0" departPos="base" departSpeed="max" arrivalLane="0" arrivalPos="max">
        <route edges="edge-south-SN edge-east-WE"/>
    </vehicle>
    <vehicle id="default-flow-route-edge-north-NS_0_base-edge-east-WE_0_max-7619780531447017676--8611841271810001168--2212-0.0" type="actor-default--7972158289131019312" depart="305.00" departLane="0" departPos="base" departSpeed="max" arrivalLane="0" arrivalPos="max">
        <route edges="edge-north-NS edge-east-WE"/>
    </vehicle>
    <vehicle id="default-flow-route-edge-south-SN_0_base-edge-north-SN_0_max--3330647475869855925--8611841271810001168--205-0.0" type="actor-default--7972158289131019312" depart="311.00" departLane="0" departPos="base" departSpeed="max" arrivalLane="0" arrivalPos="max">
        <route edges="edge-south-SN edge-north-SN"/>
    </vehicle>
    <vehicle id="default-flow-route-edge-north-NS_0_base-edge-east-WE_0_max-7619780531447017676--8611841271810001168--2213-0.0" type="actor-default--7972158289131019312" depart="315.00" departLane="0" departPos="base" departSpeed="max" arrivalLane="0" arrivalPos="max">
        <route edges="edge-north-NS edge-east-WE"/>
    </vehicle>
    <vehicle id="cautious-flow-route-edge-south-SN_0_base-edge-north-SN_0_max--3330647475869855925--5651710443200048507--206-0.0" type="actor-cautious--6965944383977896862" depart="316.00" departLane="0" departPos="base" departSpeed="max" arrivalLane="0" arrivalPos="max">
        <route edges="edge-south-SN edge-north-SN"/>
    </vehicle>
    <vehicle id="aggressive-flow-route-edge-south-SN_0_base-edge-north-SN_0_max--3330647475869855925--1777544607255311857--207-0.0" type="actor-aggressive-538156094826588776" depart="317.00" departLane="0" departPos="base" departSpeed="max" arrivalLane="0" arrivalPos="max">
        <route edges="edge-south-SN edge-north-SN"/>
    </vehicle>
    <vehicle id="default-flow-route-edge-south-SN_0_base-edge-west-EW_0_max--6409505801511773193--8611841271810001168--10-0.0" type="actor-default--7972158289131019312" depart="319.00" departLane="0" departPos="base" departSpeed="max" arrivalLane="0" arrivalPos="max">
        <route edges="edge-south-SN edge-west-EW"/>
    </vehicle>
    <vehicle id="aggressive-flow-route-edge-north-NS_0_base-edge-west-EW_0_max--9201690798924167721--1777544607255311857--2307-0.0" type="actor-aggressive-538156094826588776" depart="320.00" departLane="0" departPos="base" departSpeed="max" arrivalLane="0" arrivalPos="max">
        <route edges="edge-north-NS edge-west-EW"/>
    </vehicle>
    <vehicle id="cautious-flow-route-edge-south-SN_0_base-edge-west-EW_0_max--6409505801511773193--5651710443200048507--11-0.0" type="actor-cautious--6965944383977896862" depart="320.00" departLane="0" departPos="base" departSpeed="max" arrivalLane="0" arrivalPos="max">
        <route edges="edge-south-SN edge-west-EW"/>
    </vehicle>
    <vehicle id="default-flow-route-edge-south-SN_0_base-edge-north-SN_0_max--3330647475869855925--8611841271810001168--208-0.0" type="actor-default--7972158289131019312" depart="322.00" departLane="0" departPos="base" departSpeed="max" arrivalLane="0" arrivalPos="max">
        <route edges="edge-south-SN edge-north-SN"/>
    </vehicle>
    <vehicle id="default-flow-route-edge-south-SN_0_base-edge-north-SN_0_max--3330647475869855925--8611841271810001168--209-0.0" type="actor-default--7972158289131019312" depart="323.00" departLane="0" departPos="base" departSpeed="max" arrivalLane="0" arrivalPos="max">
        <route edges="edge-south-SN edge-north-SN"/>
    </vehicle>
    <vehicle id="aggressive-flow-route-edge-south-SN_0_base-edge-west-EW_0_max--6409505801511773193--1777544607255311857--12-0.0" type="actor-aggressive-538156094826588776" depart="325.00" departLane="0" departPos="base" departSpeed="max" arrivalLane="0" arrivalPos="max">
        <route edges="edge-south-SN edge-west-EW"/>
    </vehicle>
    <vehicle id="default-flow-route-edge-north-NS_0_base-edge-south-NS_0_max-6354198324389824595--8611841271810001168--1211-0.0" type="actor-default--7972158289131019312" depart="326.00" departLane="0" departPos="base" departSpeed="max" arrivalLane="0" arrivalPos="max">
        <route edges="edge-north-NS edge-south-NS"/>
    </vehicle>
    <vehicle id="aggressive-flow-route-edge-south-SN_0_base-edge-west-EW_0_max--6409505801511773193--1777544607255311857--13-0.0" type="actor-aggressive-538156094826588776" depart="329.00" departLane="0" departPos="base" departSpeed="max" arrivalLane="0" arrivalPos="max">
        <route edges="edge-south-SN edge-west-EW"/>
    </vehicle>
    <vehicle id="default-flow-route-edge-north-NS_0_base-edge-east-WE_0_max-7619780531447017676--8611841271810001168--2214-0.0" type="actor-default--7972158289131019312" depart="333.00" departLane="0" departPos="base" departSpeed="max" arrivalLane="0" arrivalPos="max">
        <route edges="edge-north-NS edge-east-WE"/>
    </vehicle>
    <vehicle id="aggressive-flow-route-edge-south-SN_0_base-edge-east-WE_0_max-8376576316283808492--1777544607255311857--112-0.0" type="actor-aggressive-538156094826588776" depart="338.00" departLane="0" departPos="base" departSpeed="max" arrivalLane="0" arrivalPos="max">
        <route edges="edge-south-SN edge-east-WE"/>
    </vehicle>
    <vehicle id="default-flow-route-edge-north-NS_0_base-edge-east-WE_0_max-7619780531447017676--8611841271810001168--2215-0.0" type="actor-default--7972158289131019312" depart="342.00" departLane="0" departPos="base" departSpeed="max" arrivalLane="0" arrivalPos="max">
        <route edges="edge-north-NS edge-east-WE"/>
    </vehicle>
    <vehicle id="cautious-flow-route-edge-south-SN_0_base-edge-west-EW_0_max--6409505801511773193--5651710443200048507--14-0.0" type="actor-cautious--6965944383977896862" depart="349.00" departLane="0" departPos="base" departSpeed="max" arrivalLane="0" arrivalPos="max">
        <route edges="edge-south-SN edge-west-EW"/>
    </vehicle>
    <vehicle id="default-flow-route-edge-north-NS_0_base-edge-east-WE_0_max-7619780531447017676--8611841271810001168--2216-0.0" type="actor-default--7972158289131019312" depart="352.00" departLane="0" departPos="base" departSpeed="max" arrivalLane="0" arrivalPos="max">
        <route edges="edge-north-NS edge-east-WE"/>
    </vehicle>
    <vehicle id="default-flow-route-edge-north-NS_0_base-edge-east-WE_0_max-7619780531447017676--8611841271810001168--2217-0.0" type="actor-default--7972158289131019312" depart="357.00" departLane="0" departPos="base" departSpeed="max" arrivalLane="0" arrivalPos="max">
        <route edges="edge-north-NS edge-east-WE"/>
    </vehicle>
    <vehicle id="default-flow-route-edge-south-SN_0_base-edge-east-WE_0_max-8376576316283808492--8611841271810001168--113-0.0" type="actor-default--7972158289131019312" depart="360.00" departLane="0" departPos="base" departSpeed="max" arrivalLane="0" arrivalPos="max">
        <route edges="edge-south-SN edge-east-WE"/>
    </vehicle>
    <vehicle id="default-flow-route-edge-south-SN_0_base-edge-north-SN_0_max--3330647475869855925--8611841271810001168--210-0.0" type="actor-default--7972158289131019312" depart="360.00" departLane="0" departPos="base" departSpeed="max" arrivalLane="0" arrivalPos="max">
        <route edges="edge-south-SN edge-north-SN"/>
    </vehicle>
    <vehicle id="default-flow-route-edge-north-NS_0_base-edge-west-EW_0_max--9201690798924167721--8611841271810001168--2308-0.0" type="actor-default--7972158289131019312" depart="370.00" departLane="0" departPos="base" departSpeed="max" arrivalLane="0" arrivalPos="max">
        <route edges="edge-north-NS edge-west-EW"/>
    </vehicle>
    <vehicle id="aggressive-flow-route-edge-north-NS_0_base-edge-south-NS_0_max-6354198324389824595--1777544607255311857--1212-0.0" type="actor-aggressive-538156094826588776" depart="373.00" departLane="0" departPos="base" departSpeed="max" arrivalLane="0" arrivalPos="max">
        <route edges="edge-north-NS edge-south-NS"/>
    </vehicle>