<?xml version="1.0" encoding="UTF-8"?>

<!-- generated on 2021-07-02 17:17:30 by Eclipse SUMO duarouter Version 1.9.2
<configuration xmlns:xsi="http://www.w3.org/2001/XMLSchema-instance" xsi:noNamespaceSchemaLocation="http://sumo.dlr.de/xsd/duarouterConfiguration.xsd">

    <input>
        <net-file value="/home/dikshant/github/SMARTS-lite/ultra/ultra/scenarios/task0-3agents/train_easy_2lane_t_50kmh_mid-density-flow-70/map.net.xml"/>
        <route-files value="/tmp/tmpsnw5_mjr/trips.trips.xml"/>
    </input>

    <output>
        <output-file value="/home/dikshant/github/SMARTS-lite/ultra/ultra/scenarios/task0-3agents/train_easy_2lane_t_50kmh_mid-density-flow-70/traffic/all.rou.xml"/>
        <alternatives-output value="/home/dikshant/github/SMARTS-lite/ultra/ultra/scenarios/task0-3agents/train_easy_2lane_t_50kmh_mid-density-flow-70/traffic/all.rou.alt.xml"/>
    </output>

    <processing>
        <unsorted-input value="true"/>
        <repair value="true"/>
    </processing>

    <report>
        <error-log value="/home/dikshant/.smarts/_duarouter_routing/traffic/all.log"/>
        <no-step-log value="true"/>
    </report>

    <random_number>
        <seed value="3"/>
    </random_number>

</configuration>
-->

<routes xmlns:xsi="http://www.w3.org/2001/XMLSchema-instance" xsi:noNamespaceSchemaLocation="http://sumo.dlr.de/xsd/routes_file.xsd">
    <vType id="actor-default--4798310521753805220" minGap="2.56" maxSpeed="55.50" speedFactor="normc(1.00,0.05,0.20,2.00)" vClass="passenger" accel="3.0" decel="7.5" sigma="0.5047354019143652"/>
    <vehicle id="default-flow-route-edge-east-EW_0_base-edge-west-EW_0_max-1638942497935775878--8113207300022278988--1200-0.0" type="actor-default--4798310521753805220" depart="6.00" departLane="0" departPos="base" departSpeed="max" arrivalLane="0" arrivalPos="max">
        <route edges="edge-east-EW edge-west-EW"/>
    </vehicle>
    <vehicle id="default-flow-route-edge-east-EW_0_base-edge-south-NS_0_max-1560204932034221334--8113207300022278988--2200-0.0" type="actor-default--4798310521753805220" depart="19.00" departLane="0" departPos="base" departSpeed="max" arrivalLane="0" arrivalPos="max">
        <route edges="edge-east-EW edge-south-NS"/>
    </vehicle>
    <vType id="actor-cautious--6472042858352655323" minGap="5.05" maxSpeed="55.50" speedFactor="normc(0.40,0.10,0.20,2.00)" vClass="passenger" impatience="0.00" lcStrategic="1" lcSpeedGain="1" lcKeepRight="1" lcPushy="0.2" lcImpatience="0" lcLookaheadLeft="2.9" lcOvertakeRight="0" jmIgnoreFoeProb="0.0" jmTimegapMinor="1.0" accel="3.0" decel="10.0" sigma="0.4534310816139646"/>
    <vehicle id="cautious-flow-route-edge-south-SN_0_base-edge-west-EW_0_max--6524062307227733823--871936714686613427--0-0.0" type="actor-cautious--6472042858352655323" depart="26.00" departLane="0" departPos="base" departSpeed="max" arrivalLane="0" arrivalPos="max">
        <route edges="edge-south-SN edge-west-EW"/>
    </vehicle>
    <vehicle id="default-flow-route-edge-east-EW_0_base-edge-south-NS_0_max-1560204932034221334--8113207300022278988--2201-0.0" type="actor-default--4798310521753805220" depart="28.00" departLane="0" departPos="base" departSpeed="max" arrivalLane="0" arrivalPos="max">
        <route edges="edge-east-EW edge-south-NS"/>
    </vehicle>
    <vehicle id="default-flow-route-edge-south-SN_0_base-edge-east-WE_0_max-1506014434652610818--8113207300022278988--100-0.0" type="actor-default--4798310521753805220" depart="37.00" departLane="0" departPos="base" departSpeed="max" arrivalLane="0" arrivalPos="max">
        <route edges="edge-south-SN edge-east-WE"/>
    </vehicle>
    <vehicle id="default-flow-route-edge-south-SN_0_base-edge-west-EW_0_max--6524062307227733823--8113207300022278988--1-0.0" type="actor-default--4798310521753805220" depart="38.00" departLane="0" departPos="base" departSpeed="max" arrivalLane="0" arrivalPos="max">
        <route edges="edge-south-SN edge-west-EW"/>
    </vehicle>
    <vehicle id="default-flow-route-edge-east-EW_0_base-edge-south-NS_0_max-1560204932034221334--8113207300022278988--2202-0.0" type="actor-default--4798310521753805220" depart="54.00" departLane="0" departPos="base" departSpeed="max" arrivalLane="0" arrivalPos="max">
        <route edges="edge-east-EW edge-south-NS"/>
    </vehicle>
    <vehicle id="default-flow-route-edge-west-WE_0_base-edge-south-NS_0_max-8901875131909061246--8113207300022278988--2300-0.0" type="actor-default--4798310521753805220" depart="54.00" departLane="0" departPos="base" departSpeed="max" arrivalLane="0" arrivalPos="max">
        <route edges="edge-west-WE edge-south-NS"/>
    </vehicle>
    <vehicle id="default-flow-route-edge-south-SN_0_base-edge-east-WE_0_max-1506014434652610818--8113207300022278988--101-0.0" type="actor-default--4798310521753805220" depart="57.00" departLane="0" departPos="base" departSpeed="max" arrivalLane="0" arrivalPos="max">
        <route edges="edge-south-SN edge-east-WE"/>
    </vehicle>
    <vehicle id="default-flow-route-edge-east-EW_0_base-edge-west-EW_0_max-1638942497935775878--8113207300022278988--1201-0.0" type="actor-default--4798310521753805220" depart="65.00" departLane="0" departPos="base" departSpeed="max" arrivalLane="0" arrivalPos="max">
        <route edges="edge-east-EW edge-west-EW"/>
    </vehicle>
    <vehicle id="default-flow-route-edge-east-EW_0_base-edge-west-EW_0_max-1638942497935775878--8113207300022278988--1202-0.0" type="actor-default--4798310521753805220" depart="75.00" departLane="0" departPos="base" departSpeed="max" arrivalLane="0" arrivalPos="max">
        <route edges="edge-east-EW edge-west-EW"/>
    </vehicle>
    <vehicle id="default-flow-route-edge-west-WE_0_base-edge-south-NS_0_max-8901875131909061246--8113207300022278988--2301-0.0" type="actor-default--4798310521753805220" depart="76.00" departLane="0" departPos="base" departSpeed="max" arrivalLane="0" arrivalPos="max">
        <route edges="edge-west-WE edge-south-NS"/>
    </vehicle>
    <vType id="actor-blocker--1832564960034822499" minGap="0.97" maxSpeed="55.50" speedFactor="normc(0.20,0.10,0.20,2.00)" vClass="passenger" impatience="0.00" lcStrategic="0" lcCooperative="0.0" lcSpeedGain="1" lcKeepRight="0.0" lcOpposite="0" lcPushy="0" lcImpatience="0.0" lcTimeToImpatience="1000" lcOvertakeRight="0" jmIgnoreFoeProb="0.0" jmTimegapMinor="1.0" accel="3.0" decel="7.5" sigma="0"/>
    <vehicle id="blocker-flow-route-edge-east-EW_0_base-edge-west-EW_0_max-1638942497935775878--3481559428849364677--1203-0.0" type="actor-blocker--1832564960034822499" depart="78.00" departLane="0" departPos="base" departSpeed="max" arrivalLane="0" arrivalPos="max">
        <route edges="edge-east-EW edge-west-EW"/>
    </vehicle>
    <vehicle id="default-flow-route-edge-south-SN_0_base-edge-west-EW_0_max--6524062307227733823--8113207300022278988--2-0.0" type="actor-default--4798310521753805220" depart="79.00" departLane="0" departPos="base" departSpeed="max" arrivalLane="0" arrivalPos="max">
        <route edges="edge-south-SN edge-west-EW"/>
    </vehicle>
    <vehicle id="default-flow-route-edge-west-WE_0_base-edge-south-NS_0_max-8901875131909061246--8113207300022278988--2302-0.0" type="actor-default--4798310521753805220" depart="81.00" departLane="0" departPos="base" departSpeed="max" arrivalLane="0" arrivalPos="max">
        <route edges="edge-west-WE edge-south-NS"/>
    </vehicle>
    <vehicle id="cautious-flow-route-edge-east-EW_0_base-edge-south-NS_0_max-1560204932034221334--871936714686613427--2203-0.0" type="actor-cautious--6472042858352655323" depart="83.00" departLane="0" departPos="base" departSpeed="max" arrivalLane="0" arrivalPos="max">
        <route edges="edge-east-EW edge-south-NS"/>
    </vehicle>
    <vehicle id="cautious-flow-route-edge-south-SN_0_base-edge-east-WE_0_max-1506014434652610818--871936714686613427--102-0.0" type="actor-cautious--6472042858352655323" depart="85.00" departLane="0" departPos="base" departSpeed="max" arrivalLane="0" arrivalPos="max">
        <route edges="edge-south-SN edge-east-WE"/>
    </vehicle>
    <vehicle id="default-flow-route-edge-west-WE_0_base-edge-south-NS_0_max-8901875131909061246--8113207300022278988--2303-0.0" type="actor-default--4798310521753805220" depart="90.00" departLane="0" departPos="base" departSpeed="max" arrivalLane="0" arrivalPos="max">
        <route edges="edge-west-WE edge-south-NS"/>
    </vehicle>
    <vehicle id="default-flow-route-edge-east-EW_0_base-edge-west-EW_0_max-1638942497935775878--8113207300022278988--1204-0.0" type="actor-default--4798310521753805220" depart="95.00" departLane="0" departPos="base" departSpeed="max" arrivalLane="0" arrivalPos="max">
        <route edges="edge-east-EW edge-west-EW"/>
    </vehicle>
    <vehicle id="default-flow-route-edge-east-EW_0_base-edge-west-EW_0_max-1638942497935775878--8113207300022278988--1205-0.0" type="actor-default--4798310521753805220" depart="96.00" departLane="0" departPos="base" departSpeed="max" arrivalLane="0" arrivalPos="max">
        <route edges="edge-east-EW edge-west-EW"/>
    </vehicle>
    <vehicle id="default-flow-route-edge-south-SN_0_base-edge-west-EW_0_max--6524062307227733823--8113207300022278988--3-0.0" type="actor-default--4798310521753805220" depart="97.00" departLane="0" departPos="base" departSpeed="max" arrivalLane="0" arrivalPos="max">
        <route edges="edge-south-SN edge-west-EW"/>
    </vehicle>
    <vehicle id="cautious-flow-route-edge-west-WE_0_base-edge-south-NS_0_max-8901875131909061246--871936714686613427--2304-0.0" type="actor-cautious--6472042858352655323" depart="98.00" departLane="0" departPos="base" departSpeed="max" arrivalLane="0" arrivalPos="max">
        <route edges="edge-west-WE edge-south-NS"/>
    </vehicle>
    <vehicle id="default-flow-route-edge-east-EW_0_base-edge-south-NS_0_max-1560204932034221334--8113207300022278988--2204-0.0" type="actor-default--4798310521753805220" depart="114.00" departLane="0" departPos="base" departSpeed="max" arrivalLane="0" arrivalPos="max">
        <route edges="edge-east-EW edge-south-NS"/>
    </vehicle>
    <vehicle id="default-flow-route-edge-south-SN_0_base-edge-west-EW_0_max--6524062307227733823--8113207300022278988--4-0.0" type="actor-default--4798310521753805220" depart="116.00" departLane="0" departPos="base" departSpeed="max" arrivalLane="0" arrivalPos="max">
        <route edges="edge-south-SN edge-west-EW"/>
    </vehicle>
    <vehicle id="default-flow-route-edge-south-SN_0_base-edge-east-WE_0_max-1506014434652610818--8113207300022278988--103-0.0" type="actor-default--4798310521753805220" depart="117.00" departLane="0" departPos="base" departSpeed="max" arrivalLane="0" arrivalPos="max">
        <route edges="edge-south-SN edge-east-WE"/>
    </vehicle>
    <vehicle id="blocker-flow-route-edge-east-EW_0_base-edge-west-EW_0_max-1638942497935775878--3481559428849364677--1206-0.0" type="actor-blocker--1832564960034822499" depart="128.00" departLane="0" departPos="base" departSpeed="max" arrivalLane="0" arrivalPos="max">
        <route edges="edge-east-EW edge-west-EW"/>
    </vehicle>
    <vehicle id="default-flow-route-edge-east-EW_0_base-edge-south-NS_0_max-1560204932034221334--8113207300022278988--2205-0.0" type="actor-default--4798310521753805220" depart="132.00" departLane="0" departPos="base" departSpeed="max" arrivalLane="0" arrivalPos="max">
        <route edges="edge-east-EW edge-south-NS"/>
    </vehicle>
    <vehicle id="blocker-flow-route-edge-south-SN_0_base-edge-east-WE_0_max-1506014434652610818--3481559428849364677--104-0.0" type="actor-blocker--1832564960034822499" depart="140.00" departLane="0" departPos="base" departSpeed="max" arrivalLane="0" arrivalPos="max">
        <route edges="edge-south-SN edge-east-WE"/>
    </vehicle>
    <vehicle id="default-flow-route-edge-west-WE_0_base-edge-south-NS_0_max-8901875131909061246--8113207300022278988--2305-0.0" type="actor-default--4798310521753805220" depart="141.00" departLane="0" departPos="base" departSpeed="max" arrivalLane="0" arrivalPos="max">
        <route edges="edge-west-WE edge-south-NS"/>
    </vehicle>
    <vehicle id="default-flow-route-edge-east-EW_0_base-edge-south-NS_0_max-1560204932034221334--8113207300022278988--2206-0.0" type="actor-default--4798310521753805220" depart="147.00" departLane="0" departPos="base" departSpeed="max" arrivalLane="0" arrivalPos="max">
        <route edges="edge-east-EW edge-south-NS"/>
    </vehicle>
    <vehicle id="default-flow-route-edge-west-WE_0_base-edge-east-WE_0_max--62961806906654379--8113207300022278988--200-0.0" type="actor-default--4798310521753805220" depart="147.00" departLane="0" departPos="base" departSpeed="max" arrivalLane="0" arrivalPos="max">
        <route edges="edge-west-WE edge-east-WE"/>
    </vehicle>
    <vehicle id="default-flow-route-edge-south-SN_0_base-edge-east-WE_0_max-1506014434652610818--8113207300022278988--105-0.0" type="actor-default--4798310521753805220" depart="152.00" departLane="0" departPos="base" departSpeed="max" arrivalLane="0" arrivalPos="max">
        <route edges="edge-south-SN edge-east-WE"/>
    </vehicle>
    <vehicle id="default-flow-route-edge-south-SN_0_base-edge-west-EW_0_max--6524062307227733823--8113207300022278988--5-0.0" type="actor-default--4798310521753805220" depart="156.00" departLane="0" departPos="base" departSpeed="max" arrivalLane="0" arrivalPos="max">
        <route edges="edge-south-SN edge-west-EW"/>
    </vehicle>
    <vehicle id="default-flow-route-edge-east-EW_0_base-edge-south-NS_0_max-1560204932034221334--8113207300022278988--2207-0.0" type="actor-default--4798310521753805220" depart="161.00" departLane="0" departPos="base" departSpeed="max" arrivalLane="0" arrivalPos="max">
        <route edges="edge-east-EW edge-south-NS"/>
    </vehicle>
    <vehicle id="default-flow-route-edge-east-EW_0_base-edge-south-NS_0_max-1560204932034221334--8113207300022278988--2208-0.0" type="actor-default--4798310521753805220" depart="162.00" departLane="0" departPos="base" departSpeed="max" arrivalLane="0" arrivalPos="max">
        <route edges="edge-east-EW edge-south-NS"/>
    </vehicle>
    <vehicle id="blocker-flow-route-edge-south-SN_0_base-edge-west-EW_0_max--6524062307227733823--3481559428849364677--6-0.0" type="actor-blocker--1832564960034822499" depart="164.00" departLane="0" departPos="base" departSpeed="max" arrivalLane="0" arrivalPos="max">
        <route edges="edge-south-SN edge-west-EW"/>
    </vehicle>
    <vehicle id="default-flow-route-edge-south-SN_0_base-edge-west-EW_0_max--6524062307227733823--8113207300022278988--7-0.0" type="actor-default--4798310521753805220" depart="171.00" departLane="0" departPos="base" departSpeed="max" arrivalLane="0" arrivalPos="max">
        <route edges="edge-south-SN edge-west-EW"/>
    </vehicle>
    <vehicle id="default-flow-route-edge-west-WE_0_base-edge-east-WE_0_max--62961806906654379--8113207300022278988--201-0.0" type="actor-default--4798310521753805220" depart="172.00" departLane="0" departPos="base" departSpeed="max" arrivalLane="0" arrivalPos="max">
        <route edges="edge-west-WE edge-east-WE"/>
    </vehicle>
    <vehicle id="default-flow-route-edge-south-SN_0_base-edge-west-EW_0_max--6524062307227733823--8113207300022278988--8-0.0" type="actor-default--4798310521753805220" depart="174.00" departLane="0" departPos="base" departSpeed="max" arrivalLane="0" arrivalPos="max">
        <route edges="edge-south-SN edge-west-EW"/>
    </vehicle>
    <vehicle id="default-flow-route-edge-south-SN_0_base-edge-west-EW_0_max--6524062307227733823--8113207300022278988--9-0.0" type="actor-default--4798310521753805220" depart="176.00" departLane="0" departPos="base" departSpeed="max" arrivalLane="0" arrivalPos="max">
        <route edges="edge-south-SN edge-west-EW"/>
    </vehicle>
    <vType id="actor-aggressive--3177535466419432698" minGap="1.02" maxSpeed="55.50" speedFactor="normc(1.50,0.10,0.20,2.00)" vClass="passenger" impatience="0.98" lcStrategic="10" lcSpeedGain="200" lcPushy="1.0" lcImpatience="1.0" lcTimeToImpatience="0.01" lcLookaheadLeft="0.0" lcOvertakeRight="1" jmIgnoreFoeProb="0.98" jmTimegapMinor="0.1" accel="10.0" decel="10.0" sigma="0.28997252784647576"/>
    <vehicle id="aggressive-flow-route-edge-south-SN_0_base-edge-west-EW_0_max--6524062307227733823--1202537448919149488--10-0.0" type="actor-aggressive--3177535466419432698" depart="177.00" departLane="0" departPos="base" departSpeed="max" arrivalLane="0" arrivalPos="max">
        <route edges="edge-south-SN edge-west-EW"/>
    </vehicle>
    <vehicle id="default-flow-route-edge-east-EW_0_base-edge-south-NS_0_max-1560204932034221334--8113207300022278988--2209-0.0" type="actor-default--4798310521753805220" depart="177.00" departLane="0" departPos="base" departSpeed="max" arrivalLane="0" arrivalPos="max">
        <route edges="edge-east-EW edge-south-NS"/>
    </vehicle>
    <vehicle id="default-flow-route-edge-south-SN_0_base-edge-east-WE_0_max-1506014434652610818--8113207300022278988--106-0.0" type="actor-default--4798310521753805220" depart="181.00" departLane="0" departPos="base" departSpeed="max" arrivalLane="0" arrivalPos="max">
        <route edges="edge-south-SN edge-east-WE"/>
    </vehicle>
    <vehicle id="default-flow-route-edge-south-SN_0_base-edge-east-WE_0_max-1506014434652610818--8113207300022278988--107-0.0" type="actor-default--4798310521753805220" depart="184.00" departLane="0" departPos="base" departSpeed="max" arrivalLane="0" arrivalPos="max">
        <route edges="edge-south-SN edge-east-WE"/>
    </vehicle>
    <vehicle id="default-flow-route-edge-west-WE_0_base-edge-south-NS_0_max-8901875131909061246--8113207300022278988--2306-0.0" type="actor-default--4798310521753805220" depart="198.00" departLane="0" departPos="base" departSpeed="max" arrivalLane="0" arrivalPos="max">
        <route edges="edge-west-WE edge-south-NS"/>
    </vehicle>
    <vehicle id="default-flow-route-edge-east-EW_0_base-edge-west-EW_0_max-1638942497935775878--8113207300022278988--1207-0.0" type="actor-default--4798310521753805220" depart="200.00" departLane="0" departPos="base" departSpeed="max" arrivalLane="0" arrivalPos="max">
        <route edges="edge-east-EW edge-west-EW"/>
    </vehicle>
    <vehicle id="default-flow-route-edge-west-WE_0_base-edge-east-WE_0_max--62961806906654379--8113207300022278988--202-0.0" type="actor-default--4798310521753805220" depart="202.00" departLane="0" departPos="base" departSpeed="max" arrivalLane="0" arrivalPos="max">
        <route edges="edge-west-WE edge-east-WE"/>
    </vehicle>
    <vehicle id="default-flow-route-edge-east-EW_0_base-edge-west-EW_0_max-1638942497935775878--8113207300022278988--1208-0.0" type="actor-default--4798310521753805220" depart="204.00" departLane="0" departPos="base" departSpeed="max" arrivalLane="0" arrivalPos="max">
        <route edges="edge-east-EW edge-west-EW"/>
    </vehicle>
    <vehicle id="default-flow-route-edge-west-WE_0_base-edge-south-NS_0_max-8901875131909061246--8113207300022278988--2307-0.0" type="actor-default--4798310521753805220" depart="205.00" departLane="0" departPos="base" departSpeed="max" arrivalLane="0" arrivalPos="max">
        <route edges="edge-west-WE edge-south-NS"/>
    </vehicle>
    <vehicle id="default-flow-route-edge-south-SN_0_base-edge-west-EW_0_max--6524062307227733823--8113207300022278988--11-0.0" type="actor-default--4798310521753805220" depart="219.00" departLane="0" departPos="base" departSpeed="max" arrivalLane="0" arrivalPos="max">
        <route edges="edge-south-SN edge-west-EW"/>
    </vehicle>
    <vehicle id="default-flow-route-edge-south-SN_0_base-edge-east-WE_0_max-1506014434652610818--8113207300022278988--108-0.0" type="actor-default--4798310521753805220" depart="224.00" departLane="0" departPos="base" departSpeed="max" arrivalLane="0" arrivalPos="max">
        <route edges="edge-south-SN edge-east-WE"/>
    </vehicle>
    <vehicle id="default-flow-route-edge-west-WE_0_base-edge-south-NS_0_max-8901875131909061246--8113207300022278988--2308-0.0" type="actor-default--4798310521753805220" depart="224.00" departLane="0" departPos="base" departSpeed="max" arrivalLane="0" arrivalPos="max">
        <route edges="edge-west-WE edge-south-NS"/>
    </vehicle>
    <vehicle id="default-flow-route-edge-east-EW_0_base-edge-west-EW_0_max-1638942497935775878--8113207300022278988--1209-0.0" type="actor-default--4798310521753805220" depart="225.00" departLane="0" departPos="base" departSpeed="max" arrivalLane="0" arrivalPos="max">
        <route edges="edge-east-EW edge-west-EW"/>
    </vehicle>
    <vehicle id="default-flow-route-edge-east-EW_0_base-edge-south-NS_0_max-1560204932034221334--8113207300022278988--2210-0.0" type="actor-default--4798310521753805220" depart="230.00" departLane="0" departPos="base" departSpeed="max" arrivalLane="0" arrivalPos="max">
        <route edges="edge-east-EW edge-south-NS"/>
    </vehicle>
    <vehicle id="default-flow-route-edge-south-SN_0_base-edge-west-EW_0_max--6524062307227733823--8113207300022278988--12-0.0" type="actor-default--4798310521753805220" depart="236.00" departLane="0" departPos="base" departSpeed="max" arrivalLane="0" arrivalPos="max">
        <route edges="edge-south-SN edge-west-EW"/>
    </vehicle>
    <vehicle id="default-flow-route-edge-west-WE_0_base-edge-east-WE_0_max--62961806906654379--8113207300022278988--203-0.0" type="actor-default--4798310521753805220" depart="239.00" departLane="0" departPos="base" departSpeed="max" arrivalLane="0" arrivalPos="max">
        <route edges="edge-west-WE edge-east-WE"/>
    </vehicle>
    <vehicle id="default-flow-route-edge-west-WE_0_base-edge-east-WE_0_max--62961806906654379--8113207300022278988--204-0.0" type="actor-default--4798310521753805220" depart="241.00" departLane="0" departPos="base" departSpeed="max" arrivalLane="0" arrivalPos="max">
        <route edges="edge-west-WE edge-east-WE"/>
    </vehicle>
    <vehicle id="default-flow-route-edge-east-EW_0_base-edge-west-EW_0_max-1638942497935775878--8113207300022278988--1210-0.0" type="actor-default--4798310521753805220" depart="246.00" departLane="0" departPos="base" departSpeed="max" arrivalLane="0" arrivalPos="max">
        <route edges="edge-east-EW edge-west-EW"/>
    </vehicle>
    <vehicle id="default-flow-route-edge-east-EW_0_base-edge-south-NS_0_max-1560204932034221334--8113207300022278988--2211-0.0" type="actor-default--4798310521753805220" depart="248.00" departLane="0" departPos="base" departSpeed="max" arrivalLane="0" arrivalPos="max">
        <route edges="edge-east-EW edge-south-NS"/>
    </vehicle>
    <vehicle id="aggressive-flow-route-edge-west-WE_0_base-edge-east-WE_0_max--62961806906654379--1202537448919149488--205-0.0" type="actor-aggressive--3177535466419432698" depart="253.00" departLane="0" departPos="base" departSpeed="max" arrivalLane="0" arrivalPos="max">
        <route edges="edge-west-WE edge-east-WE"/>
    </vehicle>
    <vehicle id="blocker-flow-route-edge-east-EW_0_base-edge-west-EW_0_max-1638942497935775878--3481559428849364677--1211-0.0" type="actor-blocker--1832564960034822499" depart="257.00" departLane="0" departPos="base" departSpeed="max" arrivalLane="0" arrivalPos="max">
        <route edges="edge-east-EW edge-west-EW"/>
    </vehicle>
    <vehicle id="default-flow-route-edge-east-EW_0_base-edge-south-NS_0_max-1560204932034221334--8113207300022278988--2212-0.0" type="actor-default--4798310521753805220" depart="259.00" departLane="0" departPos="base" departSpeed="max" arrivalLane="0" arrivalPos="max">
        <route edges="edge-east-EW edge-south-NS"/>
    </vehicle>
    <vehicle id="default-flow-route-edge-west-WE_0_base-edge-south-NS_0_max-8901875131909061246--8113207300022278988--2309-0.0" type="actor-default--4798310521753805220" depart="261.00" departLane="0" departPos="base" departSpeed="max" arrivalLane="0" arrivalPos="max">
        <route edges="edge-west-WE edge-south-NS"/>
    </vehicle>
    <vehicle id="default-flow-route-edge-west-WE_0_base-edge-south-NS_0_max-8901875131909061246--8113207300022278988--2310-0.0" type="actor-default--4798310521753805220" depart="265.00" departLane="0" departPos="base" departSpeed="max" arrivalLane="0" arrivalPos="max">
        <route edges="edge-west-WE edge-south-NS"/>
    </vehicle>
    <vehicle id="default-flow-route-edge-east-EW_0_base-edge-west-EW_0_max-1638942497935775878--8113207300022278988--1212-0.0" type="actor-default--4798310521753805220" depart="271.00" departLane="0" departPos="base" departSpeed="max" arrivalLane="0" arrivalPos="max">
        <route edges="edge-east-EW edge-west-EW"/>
    </vehicle>
    <vehicle id="default-flow-route-edge-south-SN_0_base-edge-west-EW_0_max--6524062307227733823--8113207300022278988--13-0.0" type="actor-default--4798310521753805220" depart="273.00" departLane="0" departPos="base" departSpeed="max" arrivalLane="0" arrivalPos="max">
        <route edges="edge-south-SN edge-west-EW"/>
    </vehicle>
    <vehicle id="aggressive-flow-route-edge-south-SN_0_base-edge-west-EW_0_max--6524062307227733823--1202537448919149488--14-0.0" type="actor-aggressive--3177535466419432698" depart="274.00" departLane="0" departPos="base" departSpeed="max" arrivalLane="0" arrivalPos="max">
        <route edges="edge-south-SN edge-west-EW"/>
    </vehicle>
    <vehicle id="default-flow-route-edge-east-EW_0_base-edge-south-NS_0_max-1560204932034221334--8113207300022278988--2213-0.0" type="actor-default--4798310521753805220" depart="276.00" departLane="0" departPos="base" departSpeed="max" arrivalLane="0" arrivalPos="max">
        <route edges="edge-east-EW edge-south-NS"/>
    </vehicle>
    <vehicle id="default-flow-route-edge-west-WE_0_base-edge-east-WE_0_max--62961806906654379--8113207300022278988--206-0.0" type="actor-default--4798310521753805220" depart="276.00" departLane="0" departPos="base" departSpeed="max" arrivalLane="0" arrivalPos="max">
        <route edges="edge-west-WE edge-east-WE"/>
    </vehicle>
    <vehicle id="default-flow-route-edge-west-WE_0_base-edge-east-WE_0_max--62961806906654379--8113207300022278988--207-0.0" type="actor-default--4798310521753805220" depart="282.00" departLane="0" departPos="base" departSpeed="max" arrivalLane="0" arrivalPos="max">
        <route edges="edge-west-WE edge-east-WE"/>
    </vehicle>
    <vehicle id="default-flow-route-edge-west-WE_0_base-edge-south-NS_0_max-8901875131909061246--8113207300022278988--2311-0.0" type="actor-default--4798310521753805220" depart="284.00" departLane="0" departPos="base" departSpeed="max" arrivalLane="0" arrivalPos="max">
        <route edges="edge-west-WE edge-south-NS"/>
    </vehicle>
    <vehicle id="cautious-flow-route-edge-east-EW_0_base-edge-south-NS_0_max-1560204932034221334--871936714686613427--2214-0.0" type="actor-cautious--6472042858352655323" depart="286.00" departLane="0" departPos="base" departSpeed="max" arrivalLane="0" arrivalPos="max">
        <route edges="edge-east-EW edge-south-NS"/>
    </vehicle>
    <vehicle id="default-flow-route-edge-east-EW_0_base-edge-south-NS_0_max-1560204932034221334--8113207300022278988--2215-0.0" type="actor-default--4798310521753805220" depart="291.00" departLane="0" departPos="base" departSpeed="max" arrivalLane="0" arrivalPos="max">
        <route edges="edge-east-EW edge-south-NS"/>
    </vehicle>
    <vehicle id="default-flow-route-edge-west-WE_0_base-edge-east-WE_0_max--62961806906654379--8113207300022278988--208-0.0" type="actor-default--4798310521753805220" depart="295.00" departLane="0" departPos="base" departSpeed="max" arrivalLane="0" arrivalPos="max">
        <route edges="edge-west-WE edge-east-WE"/>
    </vehicle>
    <vehicle id="default-flow-route-edge-west-WE_0_base-edge-south-NS_0_max-8901875131909061246--8113207300022278988--2312-0.0" type="actor-default--4798310521753805220" depart="297.00" departLane="0" departPos="base" departSpeed="max" arrivalLane="0" arrivalPos="max">
        <route edges="edge-west-WE edge-south-NS"/>
    </vehicle>
    <vehicle id="default-flow-route-edge-south-SN_0_base-edge-west-EW_0_max--6524062307227733823--8113207300022278988--15-0.0" type="actor-default--4798310521753805220" depart="300.00" departLane="0" departPos="base" departSpeed="max" arrivalLane="0" arrivalPos="max">
        <route edges="edge-south-SN edge-west-EW"/>
    </vehicle>
    <vehicle id="cautious-flow-route-edge-east-EW_0_base-edge-south-NS_0_max-1560204932034221334--871936714686613427--2216-0.0" type="actor-cautious--6472042858352655323" depart="310.00" departLane="0" departPos="base" departSpeed="max" arrivalLane="0" arrivalPos="max">
        <route edges="edge-east-EW edge-south-NS"/>
    </vehicle>
    <vehicle id="default-flow-route-edge-south-SN_0_base-edge-west-EW_0_max--6524062307227733823--8113207300022278988--16-0.0" type="actor-default--4798310521753805220" depart="317.00" departLane="0" departPos="base" departSpeed="max" arrivalLane="0" arrivalPos="max">
        <route edges="edge-south-SN edge-west-EW"/>
    </vehicle>
    <vehicle id="default-flow-route-edge-south-SN_0_base-edge-east-WE_0_max-1506014434652610818--8113207300022278988--109-0.0" type="actor-default--4798310521753805220" depart="326.00" departLane="0" departPos="base" departSpeed="max" arrivalLane="0" arrivalPos="max">
        <route edges="edge-south-SN edge-east-WE"/>
    </vehicle>
    <vehicle id="default-flow-route-edge-west-WE_0_base-edge-south-NS_0_max-8901875131909061246--8113207300022278988--2313-0.0" type="actor-default--4798310521753805220" depart="340.00" departLane="0" departPos="base" departSpeed="max" arrivalLane="0" arrivalPos="max">
        <route edges="edge-west-WE edge-south-NS"/>
    </vehicle>
    <vehicle id="default-flow-route-edge-west-WE_0_base-edge-south-NS_0_max-8901875131909061246--8113207300022278988--2314-0.0" type="actor-default--4798310521753805220" depart="341.00" departLane="0" departPos="base" departSpeed="max" arrivalLane="0" arrivalPos="max">
        <route edges="edge-west-WE edge-south-NS"/>
    </vehicle>