<?xml version="1.0" encoding="UTF-8"?>

<!-- generated on 2021-07-01 19:00:08 by Eclipse SUMO duarouter Version 1.9.2
<configuration xmlns:xsi="http://www.w3.org/2001/XMLSchema-instance" xsi:noNamespaceSchemaLocation="http://sumo.dlr.de/xsd/duarouterConfiguration.xsd">

    <input>
        <net-file value="/home/dikshant/github/SMARTS-lite/ultra/ultra/scenarios/task0-3agents/train_easy_2lane_c_70kmh_low-density-flow-5/map.net.xml"/>
        <route-files value="/tmp/tmp9nnm17rj/trips.trips.xml"/>
    </input>

    <output>
        <output-file value="/home/dikshant/github/SMARTS-lite/ultra/ultra/scenarios/task0-3agents/train_easy_2lane_c_70kmh_low-density-flow-5/traffic/all.rou.xml"/>
        <alternatives-output value="/home/dikshant/github/SMARTS-lite/ultra/ultra/scenarios/task0-3agents/train_easy_2lane_c_70kmh_low-density-flow-5/traffic/all.rou.alt.xml"/>
    </output>

    <processing>
        <unsorted-input value="true"/>
        <repair value="true"/>
    </processing>

    <report>
        <error-log value="/home/dikshant/.smarts/_duarouter_routing/traffic/all.log"/>
        <no-step-log value="true"/>
    </report>

    <random_number>
        <seed value="0"/>
    </random_number>

</configuration>
-->

<routes xmlns:xsi="http://www.w3.org/2001/XMLSchema-instance" xsi:noNamespaceSchemaLocation="http://sumo.dlr.de/xsd/routes_file.xsd">
    <vType id="actor-default--196820779050912576" minGap="2.43" maxSpeed="55.50" speedFactor="normc(1.00,0.05,0.20,2.00)" vClass="passenger" accel="3.0" decel="7.5" sigma="0.5470857702340333"/>
    <vehicle id="default-flow-route-edge-north-NS_0_base-edge-west-EW_0_max--631579588469043518---7882454410930167382--2200-0.0" type="actor-default--196820779050912576" depart="18.00" departLane="0" departPos="base" departSpeed="max" arrivalLane="0" arrivalPos="max">
        <route edges="edge-north-NS edge-west-EW"/>
    </vehicle>
    <vehicle id="default-flow-route-edge-north-NS_0_base-edge-south-NS_0_max--6868635560114145257---7882454410930167382--1200-0.0" type="actor-default--196820779050912576" depart="30.00" departLane="0" departPos="base" departSpeed="max" arrivalLane="0" arrivalPos="max">
        <route edges="edge-north-NS edge-south-NS"/>
    </vehicle>
    <vehicle id="default-flow-route-edge-south-SN_0_base-edge-west-EW_0_max--504679750499135540---7882454410930167382--0-0.0" type="actor-default--196820779050912576" depart="37.00" departLane="0" departPos="base" departSpeed="max" arrivalLane="0" arrivalPos="max">
        <route edges="edge-south-SN edge-west-EW"/>
    </vehicle>
    <vehicle id="default-flow-route-edge-north-NS_0_base-edge-east-WE_0_max--4442811648223683442---7882454410930167382--2300-0.0" type="actor-default--196820779050912576" depart="39.00" departLane="0" departPos="base" departSpeed="max" arrivalLane="0" arrivalPos="max">
        <route edges="edge-north-NS edge-east-WE"/>
    </vehicle>
    <vehicle id="default-flow-route-edge-north-NS_0_base-edge-east-WE_0_max--4442811648223683442---7882454410930167382--2301-0.0" type="actor-default--196820779050912576" depart="41.00" departLane="0" departPos="base" departSpeed="max" arrivalLane="0" arrivalPos="max">
        <route edges="edge-north-NS edge-east-WE"/>
    </vehicle>
    <vType id="actor-cautious-5693923704919840333" minGap="4.96" maxSpeed="55.50" speedFactor="normc(0.40,0.10,0.20,2.00)" vClass="passenger" impatience="0.00" lcStrategic="1" lcSpeedGain="1" lcKeepRight="1" lcPushy="0.2" lcImpatience="0" lcLookaheadLeft="2.9" lcOvertakeRight="0" jmIgnoreFoeProb="0.0" jmTimegapMinor="1.0" accel="3.0" decel="10.0" sigma="0.5089598243637429"/>
    <vehicle id="cautious-flow-route-edge-south-SN_0_base-edge-west-EW_0_max--504679750499135540---4423629500830365925--1-0.0" type="actor-cautious-5693923704919840333" depart="45.00" departLane="0" departPos="base" departSpeed="max" arrivalLane="0" arrivalPos="max">
        <route edges="edge-south-SN edge-west-EW"/>
    </vehicle>
    <vehicle id="default-flow-route-edge-north-NS_0_base-edge-west-EW_0_max--631579588469043518---7882454410930167382--2201-0.0" type="actor-default--196820779050912576" depart="62.00" departLane="0" departPos="base" departSpeed="max" arrivalLane="0" arrivalPos="max">
        <route edges="edge-north-NS edge-west-EW"/>
    </vehicle>
    <vehicle id="default-flow-route-edge-north-NS_0_base-edge-east-WE_0_max--4442811648223683442---7882454410930167382--2302-0.0" type="actor-default--196820779050912576" depart="65.00" departLane="0" departPos="base" departSpeed="max" arrivalLane="0" arrivalPos="max">
        <route edges="edge-north-NS edge-east-WE"/>
    </vehicle>
    <vehicle id="default-flow-route-edge-north-NS_0_base-edge-east-WE_0_max--4442811648223683442---7882454410930167382--2303-0.0" type="actor-default--196820779050912576" depart="76.00" departLane="0" departPos="base" departSpeed="max" arrivalLane="0" arrivalPos="max">
        <route edges="edge-north-NS edge-east-WE"/>
    </vehicle>
    <vehicle id="default-flow-route-edge-north-NS_0_base-edge-east-WE_0_max--4442811648223683442---7882454410930167382--2304-0.0" type="actor-default--196820779050912576" depart="83.00" departLane="0" departPos="base" departSpeed="max" arrivalLane="0" arrivalPos="max">
        <route edges="edge-north-NS edge-east-WE"/>
    </vehicle>
    <vehicle id="default-flow-route-edge-south-SN_0_base-edge-west-EW_0_max--504679750499135540---7882454410930167382--2-0.0" type="actor-default--196820779050912576" depart="90.00" departLane="0" departPos="base" departSpeed="max" arrivalLane="0" arrivalPos="max">
        <route edges="edge-south-SN edge-west-EW"/>
    </vehicle>
    <vehicle id="default-flow-route-edge-north-NS_0_base-edge-east-WE_0_max--4442811648223683442---7882454410930167382--2305-0.0" type="actor-default--196820779050912576" depart="105.00" departLane="0" departPos="base" departSpeed="max" arrivalLane="0" arrivalPos="max">
        <route edges="edge-north-NS edge-east-WE"/>
    </vehicle>
    <vehicle id="default-flow-route-edge-north-NS_0_base-edge-east-WE_0_max--4442811648223683442---7882454410930167382--2306-0.0" type="actor-default--196820779050912576" depart="109.00" departLane="0" departPos="base" departSpeed="max" arrivalLane="0" arrivalPos="max">
        <route edges="edge-north-NS edge-east-WE"/>
    </vehicle>
    <vehicle id="default-flow-route-edge-north-NS_0_base-edge-west-EW_0_max--631579588469043518---7882454410930167382--2202-0.0" type="actor-default--196820779050912576" depart="128.00" departLane="0" departPos="base" departSpeed="max" arrivalLane="0" arrivalPos="max">
        <route edges="edge-north-NS edge-west-EW"/>
    </vehicle>
    <vehicle id="default-flow-route-edge-north-NS_0_base-edge-south-NS_0_max--6868635560114145257---7882454410930167382--1201-0.0" type="actor-default--196820779050912576" depart="141.00" departLane="0" departPos="base" departSpeed="max" arrivalLane="0" arrivalPos="max">
        <route edges="edge-north-NS edge-south-NS"/>
    </vehicle>
    <vehicle id="default-flow-route-edge-south-SN_0_base-edge-north-SN_0_max--9131797877731621189---7882454410930167382--200-0.0" type="actor-default--196820779050912576" depart="141.00" departLane="0" departPos="base" departSpeed="max" arrivalLane="0" arrivalPos="max">
        <route edges="edge-south-SN edge-north-SN"/>
    </vehicle>
    <vehicle id="default-flow-route-edge-north-NS_0_base-edge-east-WE_0_max--4442811648223683442---7882454410930167382--2307-0.0" type="actor-default--196820779050912576" depart="160.00" departLane="0" departPos="base" departSpeed="max" arrivalLane="0" arrivalPos="max">
        <route edges="edge-north-NS edge-east-WE"/>
    </vehicle>
    <vType id="actor-blocker--7124752634790997043" minGap="0.99" maxSpeed="55.50" speedFactor="normc(0.20,0.10,0.20,2.00)" vClass="passenger" impatience="0.00" lcStrategic="0" lcCooperative="0.0" lcSpeedGain="1" lcKeepRight="0.0" lcOpposite="0" lcPushy="0" lcImpatience="0.0" lcTimeToImpatience="1000" lcOvertakeRight="0" jmIgnoreFoeProb="0.0" jmTimegapMinor="1.0" accel="3.0" decel="7.5" sigma="0"/>
    <vehicle id="blocker-flow-route-edge-north-NS_0_base-edge-east-WE_0_max--4442811648223683442---8745285980059863670--2308-0.0" type="actor-blocker--7124752634790997043" depart="161.00" departLane="0" departPos="base" departSpeed="max" arrivalLane="0" arrivalPos="max">
        <route edges="edge-north-NS edge-east-WE"/>
    </vehicle>
    <vType id="actor-aggressive-3074207939546150483" minGap="1.04" maxSpeed="55.50" speedFactor="normc(1.50,0.10,0.20,2.00)" vClass="passenger" impatience="0.98" lcStrategic="10" lcSpeedGain="200" lcPushy="1.0" lcImpatience="1.0" lcTimeToImpatience="0.01" lcLookaheadLeft="0.0" lcOvertakeRight="1" jmIgnoreFoeProb="0.98" jmTimegapMinor="0.1" accel="10.0" decel="10.0" sigma="0.0320285551921579"/>
    <vehicle id="aggressive-flow-route-edge-south-SN_0_base-edge-north-SN_0_max--9131797877731621189--7791898959049168472--201-0.0" type="actor-aggressive-3074207939546150483" depart="163.00" departLane="0" departPos="base" departSpeed="max" arrivalLane="0" arrivalPos="max">
        <route edges="edge-south-SN edge-north-SN"/>
    </vehicle>
    <vehicle id="default-flow-route-edge-south-SN_0_base-edge-east-WE_0_max-5102818903898816536---7882454410930167382--100-0.0" type="actor-default--196820779050912576" depart="180.00" departLane="0" departPos="base" departSpeed="max" arrivalLane="0" arrivalPos="max">
        <route edges="edge-south-SN edge-east-WE"/>
    </vehicle>
    <vehicle id="default-flow-route-edge-north-NS_0_base-edge-south-NS_0_max--6868635560114145257---7882454410930167382--1202-0.0" type="actor-default--196820779050912576" depart="188.00" departLane="0" departPos="base" departSpeed="max" arrivalLane="0" arrivalPos="max">
        <route edges="edge-north-NS edge-south-NS"/>
    </vehicle>
    <vehicle id="default-flow-route-edge-north-NS_0_base-edge-west-EW_0_max--631579588469043518---7882454410930167382--2203-0.0" type="actor-default--196820779050912576" depart="189.00" departLane="0" departPos="base" departSpeed="max" arrivalLane="0" arrivalPos="max">
        <route edges="edge-north-NS edge-west-EW"/>
    </vehicle>
    <vehicle id="default-flow-route-edge-south-SN_0_base-edge-west-EW_0_max--504679750499135540---7882454410930167382--3-0.0" type="actor-default--196820779050912576" depart="202.00" departLane="0" departPos="base" departSpeed="max" arrivalLane="0" arrivalPos="max">
        <route edges="edge-south-SN edge-west-EW"/>
    </vehicle>
    <vehicle id="default-flow-route-edge-south-SN_0_base-edge-east-WE_0_max-5102818903898816536---7882454410930167382--101-0.0" type="actor-default--196820779050912576" depart="212.00" departLane="0" departPos="base" departSpeed="max" arrivalLane="0" arrivalPos="max">
        <route edges="edge-south-SN edge-east-WE"/>
    </vehicle>
    <vehicle id="default-flow-route-edge-north-NS_0_base-edge-east-WE_0_max--4442811648223683442---7882454410930167382--2309-0.0" type="actor-default--196820779050912576" depart="213.00" departLane="0" departPos="base" departSpeed="max" arrivalLane="0" arrivalPos="max">
        <route edges="edge-north-NS edge-east-WE"/>
    </vehicle>
    <vehicle id="default-flow-route-edge-north-NS_0_base-edge-east-WE_0_max--4442811648223683442---7882454410930167382--2310-0.0" type="actor-default--196820779050912576" depart="218.00" departLane="0" departPos="base" departSpeed="max" arrivalLane="0" arrivalPos="max">
        <route edges="edge-north-NS edge-east-WE"/>
    </vehicle>
    <vehicle id="default-flow-route-edge-north-NS_0_base-edge-south-NS_0_max--6868635560114145257---7882454410930167382--1203-0.0" type="actor-default--196820779050912576" depart="227.00" departLane="0" departPos="base" departSpeed="max" arrivalLane="0" arrivalPos="max">
        <route edges="edge-north-NS edge-south-NS"/>
    </vehicle>
    <vehicle id="default-flow-route-edge-south-SN_0_base-edge-west-EW_0_max--504679750499135540---7882454410930167382--4-0.0" type="actor-default--196820779050912576" depart="231.00" departLane="0" departPos="base" departSpeed="max" arrivalLane="0" arrivalPos="max">
        <route edges="edge-south-SN edge-west-EW"/>
    </vehicle>
    <vehicle id="default-flow-route-edge-north-NS_0_base-edge-west-EW_0_max--631579588469043518---7882454410930167382--2204-0.0" type="actor-default--196820779050912576" depart="236.00" departLane="0" departPos="base" departSpeed="max" arrivalLane="0" arrivalPos="max">
        <route edges="edge-north-NS edge-west-EW"/>
    </vehicle>
    <vehicle id="default-flow-route-edge-north-NS_0_base-edge-south-NS_0_max--6868635560114145257---7882454410930167382--1204-0.0" type="actor-default--196820779050912576" depart="238.00" departLane="0" departPos="base" departSpeed="max" arrivalLane="0" arrivalPos="max">
        <route edges="edge-north-NS edge-south-NS"/>
    </vehicle>
    <vehicle id="default-flow-route-edge-south-SN_0_base-edge-north-SN_0_max--9131797877731621189---7882454410930167382--202-0.0" type="actor-default--196820779050912576" depart="238.00" departLane="0" departPos="base" departSpeed="max" arrivalLane="0" arrivalPos="max">
        <route edges="edge-south-SN edge-north-SN"/>
    </vehicle>
    <vehicle id="blocker-flow-route-edge-north-NS_0_base-edge-west-EW_0_max--631579588469043518---8745285980059863670--2205-0.0" type="actor-blocker--7124752634790997043" depart="250.00" departLane="0" departPos="base" departSpeed="max" arrivalLane="0" arrivalPos="max">
        <route edges="edge-north-NS edge-west-EW"/>
    </vehicle>
    <vehicle id="cautious-flow-route-edge-south-SN_0_base-edge-west-EW_0_max--504679750499135540---4423629500830365925--5-0.0" type="actor-cautious-5693923704919840333" depart="259.00" departLane="0" departPos="base" departSpeed="max" arrivalLane="0" arrivalPos="max">
        <route edges="edge-south-SN edge-west-EW"/>
    </vehicle>
    <vehicle id="default-flow-route-edge-north-NS_0_base-edge-east-WE_0_max--4442811648223683442---7882454410930167382--2311-0.0" type="actor-default--196820779050912576" depart="259.00" departLane="0" departPos="base" departSpeed="max" arrivalLane="0" arrivalPos="max">
        <route edges="edge-north-NS edge-east-WE"/>
    </vehicle>
    <vehicle id="default-flow-route-edge-north-NS_0_base-edge-east-WE_0_max--4442811648223683442---7882454410930167382--2312-0.0" type="actor-default--196820779050912576" depart="261.00" departLane="0" departPos="base" departSpeed="max" arrivalLane="0" arrivalPos="max">
        <route edges="edge-north-NS edge-east-WE"/>
    </vehicle>
    <vehicle id="default-flow-route-edge-north-NS_0_base-edge-south-NS_0_max--6868635560114145257---7882454410930167382--1205-0.0" type="actor-default--196820779050912576" depart="294.00" departLane="0" departPos="base" departSpeed="max" arrivalLane="0" arrivalPos="max">
        <route edges="edge-north-NS edge-south-NS"/>
    </vehicle>
    <vehicle id="default-flow-route-edge-south-SN_0_base-edge-east-WE_0_max-5102818903898816536---7882454410930167382--102-0.0" type="actor-default--196820779050912576" depart="297.00" departLane="0" departPos="base" departSpeed="max" arrivalLane="0" arrivalPos="max">
        <route edges="edge-south-SN edge-east-WE"/>
    </vehicle>
    <vehicle id="default-flow-route-edge-south-SN_0_base-edge-west-EW_0_max--504679750499135540---7882454410930167382--6-0.0" type="actor-default--196820779050912576" depart="303.00" departLane="0" departPos="base" departSpeed="max" arrivalLane="0" arrivalPos="max">
        <route edges="edge-south-SN edge-west-EW"/>
    </vehicle>
    <vehicle id="blocker-flow-route-edge-north-NS_0_base-edge-west-EW_0_max--631579588469043518---8745285980059863670--2206-0.0" type="actor-blocker--7124752634790997043" depart="307.00" departLane="0" departPos="base" departSpeed="max" arrivalLane="0" arrivalPos="max">
        <route edges="edge-north-NS edge-west-EW"/>
    </vehicle>
    <vehicle id="default-flow-route-edge-south-SN_0_base-edge-west-EW_0_max--504679750499135540---7882454410930167382--7-0.0" type="actor-default--196820779050912576" depart="316.00" departLane="0" departPos="base" departSpeed="max" arrivalLane="0" arrivalPos="max">
        <route edges="edge-south-SN edge-west-EW"/>
    </vehicle>
    <vehicle id="default-flow-route-edge-south-SN_0_base-edge-east-WE_0_max-5102818903898816536---7882454410930167382--103-0.0" type="actor-default--196820779050912576" depart="323.00" departLane="0" departPos="base" departSpeed="max" arrivalLane="0" arrivalPos="max">
        <route edges="edge-south-SN edge-east-WE"/>
    </vehicle>
    <vehicle id="default-flow-route-edge-north-NS_0_base-edge-west-EW_0_max--631579588469043518---7882454410930167382--2207-0.0" type="actor-default--196820779050912576" depart="324.00" departLane="0" departPos="base" departSpeed="max" arrivalLane="0" arrivalPos="max">
        <route edges="edge-north-NS edge-west-EW"/>
    </vehicle>
    <vehicle id="default-flow-route-edge-north-NS_0_base-edge-west-EW_0_max--631579588469043518---7882454410930167382--2208-0.0" type="actor-default--196820779050912576" depart="339.00" departLane="0" departPos="base" departSpeed="max" arrivalLane="0" arrivalPos="max">
        <route edges="edge-north-NS edge-west-EW"/>
    </vehicle>
    <vehicle id="default-flow-route-edge-north-NS_0_base-edge-south-NS_0_max--6868635560114145257---7882454410930167382--1206-0.0" type="actor-default--196820779050912576" depart="349.00" departLane="0" departPos="base" departSpeed="max" arrivalLane="0" arrivalPos="max">
        <route edges="edge-north-NS edge-south-NS"/>
    </vehicle>
    <vehicle id="default-flow-route-edge-north-NS_0_base-edge-west-EW_0_max--631579588469043518---7882454410930167382--2209-0.0" type="actor-default--196820779050912576" depart="355.00" departLane="0" departPos="base" departSpeed="max" arrivalLane="0" arrivalPos="max">
        <route edges="edge-north-NS edge-west-EW"/>
    </vehicle>
    <vehicle id="default-flow-route-edge-south-SN_0_base-edge-east-WE_0_max-5102818903898816536---7882454410930167382--104-0.0" type="actor-default--196820779050912576" depart="361.00" departLane="0" departPos="base" departSpeed="max" arrivalLane="0" arrivalPos="max">
        <route edges="edge-south-SN edge-east-WE"/>
    </vehicle>
    <vehicle id="blocker-flow-route-edge-north-NS_0_base-edge-west-EW_0_max--631579588469043518---8745285980059863670--2210-0.0" type="actor-blocker--7124752634790997043" depart="364.00" departLane="0" departPos="base" departSpeed="max" arrivalLane="0" arrivalPos="max">
        <route edges="edge-north-NS edge-west-EW"/>
    </vehicle>
    <vehicle id="cautious-flow-route-edge-north-NS_0_base-edge-east-WE_0_max--4442811648223683442---4423629500830365925--2313-0.0" type="actor-cautious-5693923704919840333" depart="368.00" departLane="0" departPos="base" departSpeed="max" arrivalLane="0" arrivalPos="max">
        <route edges="edge-north-NS edge-east-WE"/>
    </vehicle>
    <vehicle id="default-flow-route-edge-north-NS_0_base-edge-east-WE_0_max--4442811648223683442---7882454410930167382--2314-0.0" type="actor-default--196820779050912576" depart="382.00" departLane="0" departPos="base" departSpeed="max" arrivalLane="0" arrivalPos="max">
        <route edges="edge-north-NS edge-east-WE"/>
    </vehicle>
    <vehicle id="default-flow-route-edge-south-SN_0_base-edge-east-WE_0_max-5102818903898816536---7882454410930167382--105-0.0" type="actor-default--196820779050912576" depart="400.00" departLane="0" departPos="base" departSpeed="max" arrivalLane="0" arrivalPos="max">
        <route edges="edge-south-SN edge-east-WE"/>
    </vehicle>
    <vehicle id="default-flow-route-edge-north-NS_0_base-edge-west-EW_0_max--631579588469043518---7882454410930167382--2211-0.0" type="actor-default--196820779050912576" depart="404.00" departLane="0" departPos="base" departSpeed="max" arrivalLane="0" arrivalPos="max">
        <route edges="edge-north-NS edge-west-EW"/>
    </vehicle>
    <vehicle id="default-flow-route-edge-south-SN_0_base-edge-east-WE_0_max-5102818903898816536---7882454410930167382--106-0.0" type="actor-default--196820779050912576" depart="405.00" departLane="0" departPos="base" departSpeed="max" arrivalLane="0" arrivalPos="max">
        <route edges="edge-south-SN edge-east-WE"/>
    </vehicle>
    <vehicle id="default-flow-route-edge-north-NS_0_base-edge-east-WE_0_max--4442811648223683442---7882454410930167382--2315-0.0" type="actor-default--196820779050912576" depart="412.00" departLane="0" departPos="base" departSpeed="max" arrivalLane="0" arrivalPos="max">
        <route edges="edge-north-NS edge-east-WE"/>
    </vehicle>
    <vehicle id="aggressive-flow-route-edge-north-NS_0_base-edge-west-EW_0_max--631579588469043518--7791898959049168472--2212-0.0" type="actor-aggressive-3074207939546150483" depart="415.00" departLane="0" departPos="base" departSpeed="max" arrivalLane="0" arrivalPos="max">
        <route edges="edge-north-NS edge-west-EW"/>
    </vehicle>
    <vehicle id="default-flow-route-edge-north-NS_0_base-edge-east-WE_0_max--4442811648223683442---7882454410930167382--2316-0.0" type="actor-default--196820779050912576" depart="421.00" departLane="0" departPos="base" departSpeed="max" arrivalLane="0" arrivalPos="max">
        <route edges="edge-north-NS edge-east-WE"/>
    </vehicle>
    <vehicle id="default-flow-route-edge-north-NS_0_base-edge-south-NS_0_max--6868635560114145257---7882454410930167382--1207-0.0" type="actor-default--196820779050912576" depart="421.00" departLane="0" departPos="base" departSpeed="max" arrivalLane="0" arrivalPos="max">
        <route edges="edge-north-NS edge-south-NS"/>
    </vehicle>
    <vehicle id="default-flow-route-edge-north-NS_0_base-edge-west-EW_0_max--631579588469043518---7882454410930167382--2213-0.0" type="actor-default--196820779050912576" depart="423.00" departLane="0" departPos="base" departSpeed="max" arrivalLane="0" arrivalPos="max">
        <route edges="edge-north-NS edge-west-EW"/>
    </vehicle>
    <vehicle id="default-flow-route-edge-south-SN_0_base-edge-north-SN_0_max--9131797877731621189---7882454410930167382--203-0.0" type="actor-default--196820779050912576" depart="434.00" departLane="0" departPos="base" departSpeed="max" arrivalLane="0" arrivalPos="max">
        <route edges="edge-south-SN edge-north-SN"/>
    </vehicle>
    <vehicle id="default-flow-route-edge-south-SN_0_base-edge-west-EW_0_max--504679750499135540---7882454410930167382--8-0.0" type="actor-default--196820779050912576" depart="442.00" departLane="0" departPos="base" departSpeed="max" arrivalLane="0" arrivalPos="max">
        <route edges="edge-south-SN edge-west-EW"/>
    </vehicle>
    <vehicle id="default-flow-route-edge-south-SN_0_base-edge-east-WE_0_max-5102818903898816536---7882454410930167382--107-0.0" type="actor-default--196820779050912576" depart="443.00" departLane="0" departPos="base" departSpeed="max" arrivalLane="0" arrivalPos="max">
        <route edges="edge-south-SN edge-east-WE"/>
    </vehicle>
    <vehicle id="cautious-flow-route-edge-south-SN_0_base-edge-west-EW_0_max--504679750499135540---4423629500830365925--9-0.0" type="actor-cautious-5693923704919840333" depart="450.00" departLane="0" departPos="base" departSpeed="max" arrivalLane="0" arrivalPos="max">
        <route edges="edge-south-SN edge-west-EW"/>
    </vehicle>
    <vehicle id="default-flow-route-edge-south-SN_0_base-edge-west-EW_0_max--504679750499135540---7882454410930167382--10-0.0" type="actor-default--196820779050912576" depart="475.00" departLane="0" departPos="base" departSpeed="max" arrivalLane="0" arrivalPos="max">
        <route edges="edge-south-SN edge-west-EW"/>
    </vehicle>
    <vehicle id="default-flow-route-edge-north-NS_0_base-edge-south-NS_0_max--6868635560114145257---7882454410930167382--1208-0.0" type="actor-default--196820779050912576" depart="484.00" departLane="0" departPos="base" departSpeed="max" arrivalLane="0" arrivalPos="max">
        <route edges="edge-north-NS edge-south-NS"/>
    </vehicle>
    <vehicle id="default-flow-route-edge-south-SN_0_base-edge-west-EW_0_max--504679750499135540---7882454410930167382--11-0.0" type="actor-default--196820779050912576" depart="485.00" departLane="0" departPos="base" departSpeed="max" arrivalLane="0" arrivalPos="max">
        <route edges="edge-south-SN edge-west-EW"/>
    </vehicle>
    <vehicle id="default-flow-route-edge-north-NS_0_base-edge-west-EW_0_max--631579588469043518---7882454410930167382--2214-0.0" type="actor-default--196820779050912576" depart="494.00" departLane="0" departPos="base" departSpeed="max" arrivalLane="0" arrivalPos="max">
        <route edges="edge-north-NS edge-west-EW"/>
    </vehicle>
    <vehicle id="default-flow-route-edge-south-SN_0_base-edge-east-WE_0_max-5102818903898816536---7882454410930167382--108-0.0" type="actor-default--196820779050912576" depart="494.00" departLane="0" departPos="base" departSpeed="max" arrivalLane="0" arrivalPos="max">
        <route edges="edge-south-SN edge-east-WE"/>
    </vehicle>
    <vehicle id="default-flow-route-edge-south-SN_0_base-edge-east-WE_0_max-5102818903898816536---7882454410930167382--109-0.0" type="actor-default--196820779050912576" depart="500.00" departLane="0" departPos="base" departSpeed="max" arrivalLane="0" arrivalPos="max">
        <route edges="edge-south-SN edge-east-WE"/>
    </vehicle>
    <vehicle id="blocker-flow-route-edge-south-SN_0_base-edge-west-EW_0_max--504679750499135540---8745285980059863670--12-0.0" type="actor-blocker--7124752634790997043" depart="511.00" departLane="0" departPos="base" departSpeed="max" arrivalLane="0" arrivalPos="max">
        <route edges="edge-south-SN edge-west-EW"/>
    </vehicle>
    <vehicle id="blocker-flow-route-edge-north-NS_0_base-edge-west-EW_0_max--631579588469043518---8745285980059863670--2215-0.0" type="actor-blocker--7124752634790997043" depart="516.00" departLane="0" departPos="base" departSpeed="max" arrivalLane="0" arrivalPos="max">
        <route edges="edge-north-NS edge-west-EW"/>
    </vehicle>
    <vehicle id="default-flow-route-edge-north-NS_0_base-edge-west-EW_0_max--631579588469043518---7882454410930167382--2216-0.0" type="actor-default--196820779050912576" depart="524.00" departLane="0" departPos="base" departSpeed="max" arrivalLane="0" arrivalPos="max">
        <route edges="edge-north-NS edge-west-EW"/>
    </vehicle>
    <vehicle id="default-flow-route-edge-north-NS_0_base-edge-west-EW_0_max--631579588469043518---7882454410930167382--2217-0.0" type="actor-default--196820779050912576" depart="525.00" departLane="0" departPos="base" departSpeed="max" arrivalLane="0" arrivalPos="max">
        <route edges="edge-north-NS edge-west-EW"/>
    </vehicle>
    <vehicle id="default-flow-route-edge-south-SN_0_base-edge-north-SN_0_max--9131797877731621189---7882454410930167382--204-0.0" type="actor-default--196820779050912576" depart="529.00" departLane="0" departPos="base" departSpeed="max" arrivalLane="0" arrivalPos="max">
        <route edges="edge-south-SN edge-north-SN"/>
    </vehicle>
    <vehicle id="default-flow-route-edge-north-NS_0_base-edge-south-NS_0_max--6868635560114145257---7882454410930167382--1209-0.0" type="actor-default--196820779050912576" depart="537.00" departLane="0" departPos="base" departSpeed="max" arrivalLane="0" arrivalPos="max">
        <route edges="edge-north-NS edge-south-NS"/>
    </vehicle>
    <vehicle id="default-flow-route-edge-north-NS_0_base-edge-east-WE_0_max--4442811648223683442---7882454410930167382--2317-0.0" type="actor-default--196820779050912576" depart="548.00" departLane="0" departPos="base" departSpeed="max" arrivalLane="0" arrivalPos="max">
        <route edges="edge-north-NS edge-east-WE"/>
    </vehicle>
    <vehicle id="default-flow-route-edge-south-SN_0_base-edge-west-EW_0_max--504679750499135540---7882454410930167382--13-0.0" type="actor-default--196820779050912576" depart="555.00" departLane="0" departPos="base" departSpeed="max" arrivalLane="0" arrivalPos="max">
        <route edges="edge-south-SN edge-west-EW"/>
    </vehicle>
    <vehicle id="aggressive-flow-route-edge-north-NS_0_base-edge-east-WE_0_max--4442811648223683442--7791898959049168472--2318-0.0" type="actor-aggressive-3074207939546150483" depart="565.00" departLane="0" departPos="base" departSpeed="max" arrivalLane="0" arrivalPos="max">
        <route edges="edge-north-NS edge-east-WE"/>
    </vehicle>
    <vehicle id="default-flow-route-edge-north-NS_0_base-edge-west-EW_0_max--631579588469043518---7882454410930167382--2218-0.0" type="actor-default--196820779050912576" depart="573.00" departLane="0" departPos="base" departSpeed="max" arrivalLane="0" arrivalPos="max">
        <route edges="edge-north-NS edge-west-EW"/>
    </vehicle>
    <vehicle id="default-flow-route-edge-south-SN_0_base-edge-west-EW_0_max--504679750499135540---7882454410930167382--14-0.0" type="actor-default--196820779050912576" depart="575.00" departLane="0" departPos="base" departSpeed="max" arrivalLane="0" arrivalPos="max">
        <route edges="edge-south-SN edge-west-EW"/>
    </vehicle>
    <vehicle id="default-flow-route-edge-north-NS_0_base-edge-south-NS_0_max--6868635560114145257---7882454410930167382--1210-0.0" type="actor-default--196820779050912576" depart="585.00" departLane="0" departPos="base" departSpeed="max" arrivalLane="0" arrivalPos="max">
        <route edges="edge-north-NS edge-south-NS"/>
    </vehicle>
    <vehicle id="default-flow-route-edge-north-NS_0_base-edge-south-NS_0_max--6868635560114145257---7882454410930167382--1211-0.0" type="actor-default--196820779050912576" depart="590.00" departLane="0" departPos="base" departSpeed="max" arrivalLane="0" arrivalPos="max">
        <route edges="edge-north-NS edge-south-NS"/>
    </vehicle>