<?xml version="1.0" encoding="UTF-8"?>

<!-- generated on 2021-07-02 17:17:54 by Eclipse SUMO duarouter Version 1.9.2
<configuration xmlns:xsi="http://www.w3.org/2001/XMLSchema-instance" xsi:noNamespaceSchemaLocation="http://sumo.dlr.de/xsd/duarouterConfiguration.xsd">

    <input>
        <net-file value="/home/dikshant/github/SMARTS-lite/ultra/ultra/scenarios/task0-3agents/train_easy_2lane_t_100kmh_low-density-flow-58/map.net.xml"/>
        <route-files value="/tmp/tmp6yl3eq3j/trips.trips.xml"/>
    </input>

    <output>
        <output-file value="/home/dikshant/github/SMARTS-lite/ultra/ultra/scenarios/task0-3agents/train_easy_2lane_t_100kmh_low-density-flow-58/traffic/all.rou.xml"/>
        <alternatives-output value="/home/dikshant/github/SMARTS-lite/ultra/ultra/scenarios/task0-3agents/train_easy_2lane_t_100kmh_low-density-flow-58/traffic/all.rou.alt.xml"/>
    </output>

    <processing>
        <unsorted-input value="true"/>
        <repair value="true"/>
    </processing>

    <report>
        <error-log value="/home/dikshant/.smarts/_duarouter_routing/traffic/all.log"/>
        <no-step-log value="true"/>
    </report>

    <random_number>
        <seed value="3"/>
    </random_number>

</configuration>
-->

<routes xmlns:xsi="http://www.w3.org/2001/XMLSchema-instance" xsi:noNamespaceSchemaLocation="http://sumo.dlr.de/xsd/routes_file.xsd">
    <vType id="actor-default--4798310521753805220" minGap="2.55" maxSpeed="55.50" speedFactor="normc(1.00,0.05,0.20,2.00)" vClass="passenger" accel="3.0" decel="7.5" sigma="0.4534310816139646"/>
    <vehicle id="default-flow-route-edge-south-SN_0_base-edge-west-EW_0_max--6524062307227733823--8113207300022278988--0-0.0" type="actor-default--4798310521753805220" depart="30.00" departLane="0" departPos="base" departSpeed="max" arrivalLane="0" arrivalPos="max">
        <route edges="edge-south-SN edge-west-EW"/>
    </vehicle>
    <vehicle id="default-flow-route-edge-west-WE_0_base-edge-east-WE_0_max--62961806906654379--8113207300022278988--200-0.0" type="actor-default--4798310521753805220" depart="36.00" departLane="0" departPos="base" departSpeed="max" arrivalLane="0" arrivalPos="max">
        <route edges="edge-west-WE edge-east-WE"/>
    </vehicle>
    <vehicle id="default-flow-route-edge-south-SN_0_base-edge-west-EW_0_max--6524062307227733823--8113207300022278988--1-0.0" type="actor-default--4798310521753805220" depart="56.00" departLane="0" departPos="base" departSpeed="max" arrivalLane="0" arrivalPos="max">
        <route edges="edge-south-SN edge-west-EW"/>
    </vehicle>
    <vehicle id="default-flow-route-edge-south-SN_0_base-edge-west-EW_0_max--6524062307227733823--8113207300022278988--2-0.0" type="actor-default--4798310521753805220" depart="59.00" departLane="0" departPos="base" departSpeed="max" arrivalLane="0" arrivalPos="max">
        <route edges="edge-south-SN edge-west-EW"/>
    </vehicle>
    <vType id="actor-cautious--6472042858352655323" minGap="5.06" maxSpeed="55.50" speedFactor="normc(0.40,0.10,0.20,2.00)" vClass="passenger" impatience="0.00" lcStrategic="1" lcSpeedGain="1" lcKeepRight="1" lcPushy="0.2" lcImpatience="0" lcLookaheadLeft="2.9" lcOvertakeRight="0" jmIgnoreFoeProb="0.0" jmTimegapMinor="1.0" accel="3.0" decel="10.0" sigma="0.5047354019143652"/>
    <vehicle id="cautious-flow-route-edge-south-SN_0_base-edge-east-WE_0_max-1506014434652610818--871936714686613427--100-0.0" type="actor-cautious--6472042858352655323" depart="64.00" departLane="0" departPos="base" departSpeed="max" arrivalLane="0" arrivalPos="max">
        <route edges="edge-south-SN edge-east-WE"/>
    </vehicle>
    <vehicle id="default-flow-route-edge-south-SN_0_base-edge-east-WE_0_max-1506014434652610818--8113207300022278988--101-0.0" type="actor-default--4798310521753805220" depart="73.00" departLane="0" departPos="base" departSpeed="max" arrivalLane="0" arrivalPos="max">
        <route edges="edge-south-SN edge-east-WE"/>
    </vehicle>
    <vehicle id="default-flow-route-edge-east-EW_0_base-edge-south-NS_0_max-1560204932034221334--8113207300022278988--2300-0.0" type="actor-default--4798310521753805220" depart="81.00" departLane="0" departPos="base" departSpeed="max" arrivalLane="0" arrivalPos="max">
        <route edges="edge-east-EW edge-south-NS"/>
    </vehicle>
    <vehicle id="default-flow-route-edge-east-EW_0_base-edge-west-EW_0_max-1638942497935775878--8113207300022278988--1300-0.0" type="actor-default--4798310521753805220" depart="96.00" departLane="0" departPos="base" departSpeed="max" arrivalLane="0" arrivalPos="max">
        <route edges="edge-east-EW edge-west-EW"/>
    </vehicle>
    <vType id="actor-blocker--1832564960034822499" minGap="0.97" maxSpeed="55.50" speedFactor="normc(0.20,0.10,0.20,2.00)" vClass="passenger" impatience="0.00" lcStrategic="0" lcCooperative="0.0" lcSpeedGain="1" lcKeepRight="0.0" lcOpposite="0" lcPushy="0" lcImpatience="0.0" lcTimeToImpatience="1000" lcOvertakeRight="0" jmIgnoreFoeProb="0.0" jmTimegapMinor="1.0" accel="3.0" decel="7.5" sigma="0"/>
    <vehicle id="blocker-flow-route-edge-south-SN_0_base-edge-west-EW_0_max--6524062307227733823--3481559428849364677--3-0.0" type="actor-blocker--1832564960034822499" depart="99.00" departLane="0" departPos="base" departSpeed="max" arrivalLane="0" arrivalPos="max">
        <route edges="edge-south-SN edge-west-EW"/>
    </vehicle>
    <vehicle id="default-flow-route-edge-west-WE_0_base-edge-east-WE_0_max--62961806906654379--8113207300022278988--201-0.0" type="actor-default--4798310521753805220" depart="99.00" departLane="0" departPos="base" departSpeed="max" arrivalLane="0" arrivalPos="max">
        <route edges="edge-west-WE edge-east-WE"/>
    </vehicle>
    <vehicle id="default-flow-route-edge-south-SN_0_base-edge-west-EW_0_max--6524062307227733823--8113207300022278988--4-0.0" type="actor-default--4798310521753805220" depart="124.00" departLane="0" departPos="base" departSpeed="max" arrivalLane="0" arrivalPos="max">
        <route edges="edge-south-SN edge-west-EW"/>
    </vehicle>
    <vehicle id="blocker-flow-route-edge-east-EW_0_base-edge-south-NS_0_max-1560204932034221334--3481559428849364677--2301-0.0" type="actor-blocker--1832564960034822499" depart="126.00" departLane="0" departPos="base" departSpeed="max" arrivalLane="0" arrivalPos="max">
        <route edges="edge-east-EW edge-south-NS"/>
    </vehicle>
    <vehicle id="default-flow-route-edge-east-EW_0_base-edge-west-EW_0_max-1638942497935775878--8113207300022278988--1301-0.0" type="actor-default--4798310521753805220" depart="133.00" departLane="0" departPos="base" departSpeed="max" arrivalLane="0" arrivalPos="max">
        <route edges="edge-east-EW edge-west-EW"/>
    </vehicle>
    <vehicle id="default-flow-route-edge-west-WE_0_base-edge-south-NS_0_max-8901875131909061246--8113207300022278988--1200-0.0" type="actor-default--4798310521753805220" depart="135.00" departLane="0" departPos="base" departSpeed="max" arrivalLane="0" arrivalPos="max">
        <route edges="edge-west-WE edge-south-NS"/>
    </vehicle>
    <vehicle id="cautious-flow-route-edge-south-SN_0_base-edge-west-EW_0_max--6524062307227733823--871936714686613427--5-0.0" type="actor-cautious--6472042858352655323" depart="144.00" departLane="0" departPos="base" departSpeed="max" arrivalLane="0" arrivalPos="max">
        <route edges="edge-south-SN edge-west-EW"/>
    </vehicle>
    <vehicle id="default-flow-route-edge-east-EW_0_base-edge-south-NS_0_max-1560204932034221334--8113207300022278988--2302-0.0" type="actor-default--4798310521753805220" depart="156.00" departLane="0" departPos="base" departSpeed="max" arrivalLane="0" arrivalPos="max">
        <route edges="edge-east-EW edge-south-NS"/>
    </vehicle>
    <vehicle id="default-flow-route-edge-west-WE_0_base-edge-south-NS_0_max-8901875131909061246--8113207300022278988--1201-0.0" type="actor-default--4798310521753805220" depart="162.00" departLane="0" departPos="base" departSpeed="max" arrivalLane="0" arrivalPos="max">
        <route edges="edge-west-WE edge-south-NS"/>
    </vehicle>
    <vehicle id="default-flow-route-edge-west-WE_0_base-edge-south-NS_0_max-8901875131909061246--8113207300022278988--1202-0.0" type="actor-default--4798310521753805220" depart="172.00" departLane="0" departPos="base" departSpeed="max" arrivalLane="0" arrivalPos="max">
        <route edges="edge-west-WE edge-south-NS"/>
    </vehicle>
    <vehicle id="default-flow-route-edge-east-EW_0_base-edge-south-NS_0_max-1560204932034221334--8113207300022278988--2303-0.0" type="actor-default--4798310521753805220" depart="184.00" departLane="0" departPos="base" departSpeed="max" arrivalLane="0" arrivalPos="max">
        <route edges="edge-east-EW edge-south-NS"/>
    </vehicle>
    <vehicle id="default-flow-route-edge-south-SN_0_base-edge-east-WE_0_max-1506014434652610818--8113207300022278988--102-0.0" type="actor-default--4798310521753805220" depart="184.00" departLane="0" departPos="base" departSpeed="max" arrivalLane="0" arrivalPos="max">
        <route edges="edge-south-SN edge-east-WE"/>
    </vehicle>
    <vehicle id="default-flow-route-edge-east-EW_0_base-edge-south-NS_0_max-1560204932034221334--8113207300022278988--2304-0.0" type="actor-default--4798310521753805220" depart="198.00" departLane="0" departPos="base" departSpeed="max" arrivalLane="0" arrivalPos="max">
        <route edges="edge-east-EW edge-south-NS"/>
    </vehicle>
    <vehicle id="default-flow-route-edge-south-SN_0_base-edge-west-EW_0_max--6524062307227733823--8113207300022278988--6-0.0" type="actor-default--4798310521753805220" depart="206.00" departLane="0" departPos="base" departSpeed="max" arrivalLane="0" arrivalPos="max">
        <route edges="edge-south-SN edge-west-EW"/>
    </vehicle>
    <vehicle id="default-flow-route-edge-south-SN_0_base-edge-east-WE_0_max-1506014434652610818--8113207300022278988--103-0.0" type="actor-default--4798310521753805220" depart="216.00" departLane="0" departPos="base" departSpeed="max" arrivalLane="0" arrivalPos="max">
        <route edges="edge-south-SN edge-east-WE"/>
    </vehicle>
    <vehicle id="default-flow-route-edge-west-WE_0_base-edge-east-WE_0_max--62961806906654379--8113207300022278988--202-0.0" type="actor-default--4798310521753805220" depart="216.00" departLane="0" departPos="base" departSpeed="max" arrivalLane="0" arrivalPos="max">
        <route edges="edge-west-WE edge-east-WE"/>
    </vehicle>
    <vehicle id="default-flow-route-edge-east-EW_0_base-edge-south-NS_0_max-1560204932034221334--8113207300022278988--2305-0.0" type="actor-default--4798310521753805220" depart="224.00" departLane="0" departPos="base" departSpeed="max" arrivalLane="0" arrivalPos="max">
        <route edges="edge-east-EW edge-south-NS"/>
    </vehicle>
    <vehicle id="default-flow-route-edge-west-WE_0_base-edge-east-WE_0_max--62961806906654379--8113207300022278988--203-0.0" type="actor-default--4798310521753805220" depart="227.00" departLane="0" departPos="base" departSpeed="max" arrivalLane="0" arrivalPos="max">
        <route edges="edge-west-WE edge-east-WE"/>
    </vehicle>
    <vehicle id="default-flow-route-edge-south-SN_0_base-edge-east-WE_0_max-1506014434652610818--8113207300022278988--104-0.0" type="actor-default--4798310521753805220" depart="249.00" departLane="0" departPos="base" departSpeed="max" arrivalLane="0" arrivalPos="max">
        <route edges="edge-south-SN edge-east-WE"/>
    </vehicle>
    <vehicle id="default-flow-route-edge-east-EW_0_base-edge-west-EW_0_max-1638942497935775878--8113207300022278988--1302-0.0" type="actor-default--4798310521753805220" depart="257.00" departLane="0" departPos="base" departSpeed="max" arrivalLane="0" arrivalPos="max">
        <route edges="edge-east-EW edge-west-EW"/>
    </vehicle>
    <vehicle id="default-flow-route-edge-west-WE_0_base-edge-east-WE_0_max--62961806906654379--8113207300022278988--204-0.0" type="actor-default--4798310521753805220" depart="264.00" departLane="0" departPos="base" departSpeed="max" arrivalLane="0" arrivalPos="max">
        <route edges="edge-west-WE edge-east-WE"/>
    </vehicle>
    <vehicle id="default-flow-route-edge-east-EW_0_base-edge-south-NS_0_max-1560204932034221334--8113207300022278988--2306-0.0" type="actor-default--4798310521753805220" depart="278.00" departLane="0" departPos="base" departSpeed="max" arrivalLane="0" arrivalPos="max">
        <route edges="edge-east-EW edge-south-NS"/>
    </vehicle>
    <vehicle id="default-flow-route-edge-west-WE_0_base-edge-south-NS_0_max-8901875131909061246--8113207300022278988--1203-0.0" type="actor-default--4798310521753805220" depart="288.00" departLane="0" departPos="base" departSpeed="max" arrivalLane="0" arrivalPos="max">
        <route edges="edge-west-WE edge-south-NS"/>
    </vehicle>
    <vehicle id="default-flow-route-edge-south-SN_0_base-edge-west-EW_0_max--6524062307227733823--8113207300022278988--7-0.0" type="actor-default--4798310521753805220" depart="289.00" departLane="0" departPos="base" departSpeed="max" arrivalLane="0" arrivalPos="max">
        <route edges="edge-south-SN edge-west-EW"/>
    </vehicle>
    <vehicle id="cautious-flow-route-edge-south-SN_0_base-edge-west-EW_0_max--6524062307227733823--871936714686613427--8-0.0" type="actor-cautious--6472042858352655323" depart="294.00" departLane="0" departPos="base" departSpeed="max" arrivalLane="0" arrivalPos="max">
        <route edges="edge-south-SN edge-west-EW"/>
    </vehicle>
    <vType id="actor-aggressive--3177535466419432698" minGap="1.02" maxSpeed="55.50" speedFactor="normc(1.50,0.10,0.20,2.00)" vClass="passenger" impatience="0.98" lcStrategic="10" lcSpeedGain="200" lcPushy="1.0" lcImpatience="1.0" lcTimeToImpatience="0.01" lcLookaheadLeft="0.0" lcOvertakeRight="1" jmIgnoreFoeProb="0.98" jmTimegapMinor="0.1" accel="10.0" decel="10.0" sigma="0.28997252784647576"/>
    <vehicle id="aggressive-flow-route-edge-east-EW_0_base-edge-west-EW_0_max-1638942497935775878--1202537448919149488--1303-0.0" type="actor-aggressive--3177535466419432698" depart="299.00" departLane="0" departPos="base" departSpeed="max" arrivalLane="0" arrivalPos="max">
        <route edges="edge-east-EW edge-west-EW"/>
    </vehicle>
    <vehicle id="default-flow-route-edge-south-SN_0_base-edge-east-WE_0_max-1506014434652610818--8113207300022278988--105-0.0" type="actor-default--4798310521753805220" depart="307.00" departLane="0" departPos="base" departSpeed="max" arrivalLane="0" arrivalPos="max">
        <route edges="edge-south-SN edge-east-WE"/>
    </vehicle>
    <vehicle id="blocker-flow-route-edge-south-SN_0_base-edge-east-WE_0_max-1506014434652610818--3481559428849364677--106-0.0" type="actor-blocker--1832564960034822499" depart="316.00" departLane="0" departPos="base" departSpeed="max" arrivalLane="0" arrivalPos="max">
        <route edges="edge-south-SN edge-east-WE"/>
    </vehicle>
    <vehicle id="default-flow-route-edge-south-SN_0_base-edge-east-WE_0_max-1506014434652610818--8113207300022278988--107-0.0" type="actor-default--4798310521753805220" depart="322.00" departLane="0" departPos="base" departSpeed="max" arrivalLane="0" arrivalPos="max">
        <route edges="edge-south-SN edge-east-WE"/>
    </vehicle>
    <vehicle id="blocker-flow-route-edge-east-EW_0_base-edge-west-EW_0_max-1638942497935775878--3481559428849364677--1304-0.0" type="actor-blocker--1832564960034822499" depart="343.00" departLane="0" departPos="base" departSpeed="max" arrivalLane="0" arrivalPos="max">
        <route edges="edge-east-EW edge-west-EW"/>
    </vehicle>
    <vehicle id="default-flow-route-edge-west-WE_0_base-edge-south-NS_0_max-8901875131909061246--8113207300022278988--1204-0.0" type="actor-default--4798310521753805220" depart="343.00" departLane="0" departPos="base" departSpeed="max" arrivalLane="0" arrivalPos="max">
        <route edges="edge-west-WE edge-south-NS"/>
    </vehicle>
    <vehicle id="default-flow-route-edge-west-WE_0_base-edge-east-WE_0_max--62961806906654379--8113207300022278988--205-0.0" type="actor-default--4798310521753805220" depart="352.00" departLane="0" departPos="base" departSpeed="max" arrivalLane="0" arrivalPos="max">
        <route edges="edge-west-WE edge-east-WE"/>
    </vehicle>
    <vehicle id="default-flow-route-edge-south-SN_0_base-edge-west-EW_0_max--6524062307227733823--8113207300022278988--9-0.0" type="actor-default--4798310521753805220" depart="362.00" departLane="0" departPos="base" departSpeed="max" arrivalLane="0" arrivalPos="max">
        <route edges="edge-south-SN edge-west-EW"/>
    </vehicle>
    <vehicle id="cautious-flow-route-edge-south-SN_0_base-edge-east-WE_0_max-1506014434652610818--871936714686613427--108-0.0" type="actor-cautious--6472042858352655323" depart="377.00" departLane="0" departPos="base" departSpeed="max" arrivalLane="0" arrivalPos="max">
        <route edges="edge-south-SN edge-east-WE"/>
    </vehicle>
    <vehicle id="default-flow-route-edge-east-EW_0_base-edge-south-NS_0_max-1560204932034221334--8113207300022278988--2307-0.0" type="actor-default--4798310521753805220" depart="377.00" departLane="0" departPos="base" departSpeed="max" arrivalLane="0" arrivalPos="max">
        <route edges="edge-east-EW edge-south-NS"/>
    </vehicle>
    <vehicle id="default-flow-route-edge-south-SN_0_base-edge-east-WE_0_max-1506014434652610818--8113207300022278988--109-0.0" type="actor-default--4798310521753805220" depart="386.00" departLane="0" departPos="base" departSpeed="max" arrivalLane="0" arrivalPos="max">
        <route edges="edge-south-SN edge-east-WE"/>
    </vehicle>
    <vehicle id="default-flow-route-edge-west-WE_0_base-edge-east-WE_0_max--62961806906654379--8113207300022278988--206-0.0" type="actor-default--4798310521753805220" depart="393.00" departLane="0" departPos="base" departSpeed="max" arrivalLane="0" arrivalPos="max">
        <route edges="edge-west-WE edge-east-WE"/>
    </vehicle>
    <vehicle id="default-flow-route-edge-south-SN_0_base-edge-west-EW_0_max--6524062307227733823--8113207300022278988--10-0.0" type="actor-default--4798310521753805220" depart="422.00" departLane="0" departPos="base" departSpeed="max" arrivalLane="0" arrivalPos="max">
        <route edges="edge-south-SN edge-west-EW"/>
    </vehicle>
    <vehicle id="default-flow-route-edge-east-EW_0_base-edge-west-EW_0_max-1638942497935775878--8113207300022278988--1305-0.0" type="actor-default--4798310521753805220" depart="423.00" departLane="0" departPos="base" departSpeed="max" arrivalLane="0" arrivalPos="max">
        <route edges="edge-east-EW edge-west-EW"/>
    </vehicle>
    <vehicle id="default-flow-route-edge-west-WE_0_base-edge-east-WE_0_max--62961806906654379--8113207300022278988--207-0.0" type="actor-default--4798310521753805220" depart="452.00" departLane="0" departPos="base" departSpeed="max" arrivalLane="0" arrivalPos="max">
        <route edges="edge-west-WE edge-east-WE"/>
    </vehicle>
    <vehicle id="default-flow-route-edge-west-WE_0_base-edge-south-NS_0_max-8901875131909061246--8113207300022278988--1205-0.0" type="actor-default--4798310521753805220" depart="452.00" departLane="0" departPos="base" departSpeed="max" arrivalLane="0" arrivalPos="max">
        <route edges="edge-west-WE edge-south-NS"/>
    </vehicle>
    <vehicle id="default-flow-route-edge-west-WE_0_base-edge-east-WE_0_max--62961806906654379--8113207300022278988--208-0.0" type="actor-default--4798310521753805220" depart="464.00" departLane="0" departPos="base" departSpeed="max" arrivalLane="0" arrivalPos="max">
        <route edges="edge-west-WE edge-east-WE"/>
    </vehicle>
    <vehicle id="default-flow-route-edge-west-WE_0_base-edge-south-NS_0_max-8901875131909061246--8113207300022278988--1206-0.0" type="actor-default--4798310521753805220" depart="485.00" departLane="0" departPos="base" departSpeed="max" arrivalLane="0" arrivalPos="max">
        <route edges="edge-west-WE edge-south-NS"/>
    </vehicle>
    <vehicle id="default-flow-route-edge-west-WE_0_base-edge-east-WE_0_max--62961806906654379--8113207300022278988--209-0.0" type="actor-default--4798310521753805220" depart="491.00" departLane="0" departPos="base" departSpeed="max" arrivalLane="0" arrivalPos="max">
        <route edges="edge-west-WE edge-east-WE"/>
    </vehicle>
    <vehicle id="default-flow-route-edge-south-SN_0_base-edge-west-EW_0_max--6524062307227733823--8113207300022278988--11-0.0" type="actor-default--4798310521753805220" depart="496.00" departLane="0" departPos="base" departSpeed="max" arrivalLane="0" arrivalPos="max">
        <route edges="edge-south-SN edge-west-EW"/>
    </vehicle>
    <vehicle id="default-flow-route-edge-west-WE_0_base-edge-east-WE_0_max--62961806906654379--8113207300022278988--210-0.0" type="actor-default--4798310521753805220" depart="507.00" departLane="0" departPos="base" departSpeed="max" arrivalLane="0" arrivalPos="max">
        <route edges="edge-west-WE edge-east-WE"/>
    </vehicle>
    <vehicle id="default-flow-route-edge-east-EW_0_base-edge-west-EW_0_max-1638942497935775878--8113207300022278988--1306-0.0" type="actor-default--4798310521753805220" depart="511.00" departLane="0" departPos="base" departSpeed="max" arrivalLane="0" arrivalPos="max">
        <route edges="edge-east-EW edge-west-EW"/>
    </vehicle>
    <vehicle id="default-flow-route-edge-south-SN_0_base-edge-west-EW_0_max--6524062307227733823--8113207300022278988--12-0.0" type="actor-default--4798310521753805220" depart="511.00" departLane="0" departPos="base" departSpeed="max" arrivalLane="0" arrivalPos="max">
        <route edges="edge-south-SN edge-west-EW"/>
    </vehicle>
    <vehicle id="default-flow-route-edge-east-EW_0_base-edge-west-EW_0_max-1638942497935775878--8113207300022278988--1307-0.0" type="actor-default--4798310521753805220" depart="524.00" departLane="0" departPos="base" departSpeed="max" arrivalLane="0" arrivalPos="max">
        <route edges="edge-east-EW edge-west-EW"/>
    </vehicle>
    <vehicle id="default-flow-route-edge-east-EW_0_base-edge-south-NS_0_max-1560204932034221334--8113207300022278988--2308-0.0" type="actor-default--4798310521753805220" depart="534.00" departLane="0" departPos="base" departSpeed="max" arrivalLane="0" arrivalPos="max">
        <route edges="edge-east-EW edge-south-NS"/>
    </vehicle>
    <vehicle id="default-flow-route-edge-east-EW_0_base-edge-south-NS_0_max-1560204932034221334--8113207300022278988--2309-0.0" type="actor-default--4798310521753805220" depart="568.00" departLane="0" departPos="base" departSpeed="max" arrivalLane="0" arrivalPos="max">
        <route edges="edge-east-EW edge-south-NS"/>
    </vehicle>
    <vehicle id="aggressive-flow-route-edge-east-EW_0_base-edge-south-NS_0_max-1560204932034221334--1202537448919149488--2310-0.0" type="actor-aggressive--3177535466419432698" depart="573.00" departLane="0" departPos="base" departSpeed="max" arrivalLane="0" arrivalPos="max">
        <route edges="edge-east-EW edge-south-NS"/>
    </vehicle>
    <vehicle id="default-flow-route-edge-west-WE_0_base-edge-east-WE_0_max--62961806906654379--8113207300022278988--211-0.0" type="actor-default--4798310521753805220" depart="601.00" departLane="0" departPos="base" departSpeed="max" arrivalLane="0" arrivalPos="max">
        <route edges="edge-west-WE edge-east-WE"/>
    </vehicle>
    <vehicle id="default-flow-route-edge-east-EW_0_base-edge-south-NS_0_max-1560204932034221334--8113207300022278988--2311-0.0" type="actor-default--4798310521753805220" depart="605.00" departLane="0" departPos="base" departSpeed="max" arrivalLane="0" arrivalPos="max">
        <route edges="edge-east-EW edge-south-NS"/>
    </vehicle>
    <vehicle id="blocker-flow-route-edge-west-WE_0_base-edge-east-WE_0_max--62961806906654379--3481559428849364677--212-0.0" type="actor-blocker--1832564960034822499" depart="607.00" departLane="0" departPos="base" departSpeed="max" arrivalLane="0" arrivalPos="max">
        <route edges="edge-west-WE edge-east-WE"/>
    </vehicle>
    <vehicle id="aggressive-flow-route-edge-south-SN_0_base-edge-east-WE_0_max-1506014434652610818--1202537448919149488--110-0.0" type="actor-aggressive--3177535466419432698" depart="627.00" departLane="0" departPos="base" departSpeed="max" arrivalLane="0" arrivalPos="max">
        <route edges="edge-south-SN edge-east-WE"/>
    </vehicle>
    <vehicle id="cautious-flow-route-edge-west-WE_0_base-edge-south-NS_0_max-8901875131909061246--871936714686613427--1207-0.0" type="actor-cautious--6472042858352655323" depart="633.00" departLane="0" departPos="base" departSpeed="max" arrivalLane="0" arrivalPos="max">
        <route edges="edge-west-WE edge-south-NS"/>
    </vehicle>
    <vehicle id="default-flow-route-edge-south-SN_0_base-edge-east-WE_0_max-1506014434652610818--8113207300022278988--111-0.0" type="actor-default--4798310521753805220" depart="633.00" departLane="0" departPos="base" departSpeed="max" arrivalLane="0" arrivalPos="max">
        <route edges="edge-south-SN edge-east-WE"/>
    </vehicle>
    <vehicle id="blocker-flow-route-edge-south-SN_0_base-edge-east-WE_0_max-1506014434652610818--3481559428849364677--112-0.0" type="actor-blocker--1832564960034822499" depart="634.00" departLane="0" departPos="base" departSpeed="max" arrivalLane="0" arrivalPos="max">
        <route edges="edge-south-SN edge-east-WE"/>
    </vehicle>
    <vehicle id="default-flow-route-edge-west-WE_0_base-edge-east-WE_0_max--62961806906654379--8113207300022278988--213-0.0" type="actor-default--4798310521753805220" depart="638.00" departLane="0" departPos="base" departSpeed="max" arrivalLane="0" arrivalPos="max">
        <route edges="edge-west-WE edge-east-WE"/>
    </vehicle>
    <vehicle id="blocker-flow-route-edge-east-EW_0_base-edge-west-EW_0_max-1638942497935775878--3481559428849364677--1308-0.0" type="actor-blocker--1832564960034822499" depart="647.00" departLane="0" departPos="base" departSpeed="max" arrivalLane="0" arrivalPos="max">
        <route edges="edge-east-EW edge-west-EW"/>
    </vehicle>
    <vehicle id="default-flow-route-edge-east-EW_0_base-edge-south-NS_0_max-1560204932034221334--8113207300022278988--2312-0.0" type="actor-default--4798310521753805220" depart="661.00" departLane="0" departPos="base" departSpeed="max" arrivalLane="0" arrivalPos="max">
        <route edges="edge-east-EW edge-south-NS"/>
    </vehicle>
    <vehicle id="default-flow-route-edge-south-SN_0_base-edge-east-WE_0_max-1506014434652610818--8113207300022278988--113-0.0" type="actor-default--4798310521753805220" depart="670.00" departLane="0" departPos="base" departSpeed="max" arrivalLane="0" arrivalPos="max">
        <route edges="edge-south-SN edge-east-WE"/>
    </vehicle>
    <vehicle id="aggressive-flow-route-edge-east-EW_0_base-edge-south-NS_0_max-1560204932034221334--1202537448919149488--2313-0.0" type="actor-aggressive--3177535466419432698" depart="675.00" departLane="0" departPos="base" departSpeed="max" arrivalLane="0" arrivalPos="max">
        <route edges="edge-east-EW edge-south-NS"/>
    </vehicle>
    <vehicle id="cautious-flow-route-edge-south-SN_0_base-edge-west-EW_0_max--6524062307227733823--871936714686613427--13-0.0" type="actor-cautious--6472042858352655323" depart="682.00" departLane="0" departPos="base" departSpeed="max" arrivalLane="0" arrivalPos="max">
        <route edges="edge-south-SN edge-west-EW"/>
    </vehicle>
    <vehicle id="aggressive-flow-route-edge-south-SN_0_base-edge-east-WE_0_max-1506014434652610818--1202537448919149488--114-0.0" type="actor-aggressive--3177535466419432698" depart="684.00" departLane="0" departPos="base" departSpeed="max" arrivalLane="0" arrivalPos="max">
        <route edges="edge-south-SN edge-east-WE"/>
    </vehicle>
    <vehicle id="default-flow-route-edge-south-SN_0_base-edge-east-WE_0_max-1506014434652610818--8113207300022278988--115-0.0" type="actor-default--4798310521753805220" depart="688.00" departLane="0" departPos="base" departSpeed="max" arrivalLane="0" arrivalPos="max">
        <route edges="edge-south-SN edge-east-WE"/>
    </vehicle>
    <vehicle id="default-flow-route-edge-east-EW_0_base-edge-south-NS_0_max-1560204932034221334--8113207300022278988--2314-0.0" type="actor-default--4798310521753805220" depart="690.00" departLane="0" departPos="base" departSpeed="max" arrivalLane="0" arrivalPos="max">
        <route edges="edge-east-EW edge-south-NS"/>
    </vehicle>
    <vehicle id="aggressive-flow-route-edge-east-EW_0_base-edge-south-NS_0_max-1560204932034221334--1202537448919149488--2315-0.0" type="actor-aggressive--3177535466419432698" depart="698.00" departLane="0" departPos="base" departSpeed="max" arrivalLane="0" arrivalPos="max">
        <route edges="edge-east-EW edge-south-NS"/>
    </vehicle>
    <vehicle id="blocker-flow-route-edge-west-WE_0_base-edge-east-WE_0_max--62961806906654379--3481559428849364677--214-0.0" type="actor-blocker--1832564960034822499" depart="709.00" departLane="0" departPos="base" departSpeed="max" arrivalLane="0" arrivalPos="max">
        <route edges="edge-west-WE edge-east-WE"/>
    </vehicle>
    <vehicle id="default-flow-route-edge-west-WE_0_base-edge-south-NS_0_max-8901875131909061246--8113207300022278988--1208-0.0" type="actor-default--4798310521753805220" depart="723.00" departLane="0" departPos="base" departSpeed="max" arrivalLane="0" arrivalPos="max">
        <route edges="edge-west-WE edge-south-NS"/>
    </vehicle>
    <vehicle id="default-flow-route-edge-east-EW_0_base-edge-south-NS_0_max-1560204932034221334--8113207300022278988--2316-0.0" type="actor-default--4798310521753805220" depart="725.00" departLane="0" departPos="base" departSpeed="max" arrivalLane="0" arrivalPos="max">
        <route edges="edge-east-EW edge-south-NS"/>
    </vehicle>
    <vehicle id="default-flow-route-edge-east-EW_0_base-edge-west-EW_0_max-1638942497935775878--8113207300022278988--1309-0.0" type="actor-default--4798310521753805220" depart="726.00" departLane="0" departPos="base" departSpeed="max" arrivalLane="0" arrivalPos="max">
        <route edges="edge-east-EW edge-west-EW"/>
    </vehicle>