<?xml version="1.0" encoding="UTF-8"?>

<!-- generated on 2021-07-01 03:55:17 by Eclipse SUMO duarouter Version 1.9.2
<configuration xmlns:xsi="http://www.w3.org/2001/XMLSchema-instance" xsi:noNamespaceSchemaLocation="http://sumo.dlr.de/xsd/duarouterConfiguration.xsd">

    <input>
        <net-file value="/home/dikshant/github/SMARTS-lite/ultra/ultra/scenarios/task0-3agents/train_easy_2lane_c_50kmh_low-density-flow-4/map.net.xml"/>
        <route-files value="/tmp/tmpr7gxri5n/trips.trips.xml"/>
    </input>

    <output>
        <output-file value="/home/dikshant/github/SMARTS-lite/ultra/ultra/scenarios/task0-3agents/train_easy_2lane_c_50kmh_low-density-flow-4/traffic/all.rou.xml"/>
        <alternatives-output value="/home/dikshant/github/SMARTS-lite/ultra/ultra/scenarios/task0-3agents/train_easy_2lane_c_50kmh_low-density-flow-4/traffic/all.rou.alt.xml"/>
    </output>

    <processing>
        <unsorted-input value="true"/>
        <repair value="true"/>
    </processing>

    <report>
        <error-log value="/home/dikshant/.smarts/_duarouter_routing/traffic/all.log"/>
        <no-step-log value="true"/>
    </report>

    <random_number>
        <seed value="4"/>
    </random_number>

</configuration>
-->

<routes xmlns:xsi="http://www.w3.org/2001/XMLSchema-instance" xsi:noNamespaceSchemaLocation="http://sumo.dlr.de/xsd/routes_file.xsd">
    <vType id="actor-default--7972158289131019312" minGap="2.52" maxSpeed="55.50" speedFactor="normc(1.00,0.05,0.20,2.00)" vClass="passenger" accel="3.0" decel="7.5" sigma="0.5020427972396552"/>
    <vehicle id="default-flow-route-edge-south-SN_0_base-edge-west-EW_0_max--6409505801511773193--8611841271810001168--0-0.0" type="actor-default--7972158289131019312" depart="8.00" departLane="0" departPos="base" departSpeed="max" arrivalLane="0" arrivalPos="max">
        <route edges="edge-south-SN edge-west-EW"/>
    </vehicle>
    <vehicle id="default-flow-route-edge-south-SN_0_base-edge-west-EW_0_max--6409505801511773193--8611841271810001168--1-0.0" type="actor-default--7972158289131019312" depart="17.00" departLane="0" departPos="base" departSpeed="max" arrivalLane="0" arrivalPos="max">
        <route edges="edge-south-SN edge-west-EW"/>
    </vehicle>
    <vehicle id="default-flow-route-edge-north-NS_0_base-edge-east-WE_0_max-7619780531447017676--8611841271810001168--2300-0.0" type="actor-default--7972158289131019312" depart="34.00" departLane="0" departPos="base" departSpeed="max" arrivalLane="0" arrivalPos="max">
        <route edges="edge-north-NS edge-east-WE"/>
    </vehicle>
    <vehicle id="default-flow-route-edge-south-SN_0_base-edge-north-SN_0_max--3330647475869855925--8611841271810001168--200-0.0" type="actor-default--7972158289131019312" depart="38.00" departLane="0" departPos="base" departSpeed="max" arrivalLane="0" arrivalPos="max">
        <route edges="edge-south-SN edge-north-SN"/>
    </vehicle>
    <vehicle id="default-flow-route-edge-south-SN_0_base-edge-north-SN_0_max--3330647475869855925--8611841271810001168--201-0.0" type="actor-default--7972158289131019312" depart="46.00" departLane="0" departPos="base" departSpeed="max" arrivalLane="0" arrivalPos="max">
        <route edges="edge-south-SN edge-north-SN"/>
    </vehicle>
    <vType id="actor-cautious--6965944383977896862" minGap="5.02" maxSpeed="55.50" speedFactor="normc(0.40,0.10,0.20,2.00)" vClass="passenger" impatience="0.00" lcStrategic="1" lcSpeedGain="1" lcKeepRight="1" lcPushy="0.2" lcImpatience="0" lcLookaheadLeft="2.9" lcOvertakeRight="0" jmIgnoreFoeProb="0.0" jmTimegapMinor="1.0" accel="3.0" decel="10.0" sigma="0.5463085513418764"/>
    <vehicle id="cautious-flow-route-edge-north-NS_0_base-edge-south-NS_0_max-6354198324389824595--5651710443200048507--1200-0.0" type="actor-cautious--6965944383977896862" depart="49.00" departLane="0" departPos="base" departSpeed="max" arrivalLane="0" arrivalPos="max">
        <route edges="edge-north-NS edge-south-NS"/>
    </vehicle>
    <vehicle id="default-flow-route-edge-south-SN_0_base-edge-north-SN_0_max--3330647475869855925--8611841271810001168--202-0.0" type="actor-default--7972158289131019312" depart="67.00" departLane="0" departPos="base" departSpeed="max" arrivalLane="0" arrivalPos="max">
        <route edges="edge-south-SN edge-north-SN"/>
    </vehicle>
    <vType id="actor-aggressive-538156094826588776" minGap="0.91" maxSpeed="55.50" speedFactor="normc(1.50,0.10,0.20,2.00)" vClass="passenger" impatience="0.98" lcStrategic="10" lcSpeedGain="200" lcPushy="1.0" lcImpatience="1.0" lcTimeToImpatience="0.01" lcLookaheadLeft="0.0" lcOvertakeRight="1" jmIgnoreFoeProb="0.98" jmTimegapMinor="0.1" accel="10.0" decel="10.0" sigma="0.2562064225863214"/>
    <vehicle id="aggressive-flow-route-edge-south-SN_0_base-edge-north-SN_0_max--3330647475869855925--1777544607255311857--203-0.0" type="actor-aggressive-538156094826588776" depart="96.00" departLane="0" departPos="base" departSpeed="max" arrivalLane="0" arrivalPos="max">
        <route edges="edge-south-SN edge-north-SN"/>
    </vehicle>
    <vehicle id="default-flow-route-edge-north-NS_0_base-edge-west-EW_0_max--9201690798924167721--8611841271810001168--2200-0.0" type="actor-default--7972158289131019312" depart="96.00" departLane="0" departPos="base" departSpeed="max" arrivalLane="0" arrivalPos="max">
        <route edges="edge-north-NS edge-west-EW"/>
    </vehicle>
    <vehicle id="default-flow-route-edge-north-NS_0_base-edge-west-EW_0_max--9201690798924167721--8611841271810001168--2201-0.0" type="actor-default--7972158289131019312" depart="118.00" departLane="0" departPos="base" departSpeed="max" arrivalLane="0" arrivalPos="max">
        <route edges="edge-north-NS edge-west-EW"/>
    </vehicle>
    <vehicle id="default-flow-route-edge-north-NS_0_base-edge-south-NS_0_max-6354198324389824595--8611841271810001168--1201-0.0" type="actor-default--7972158289131019312" depart="120.00" departLane="0" departPos="base" departSpeed="max" arrivalLane="0" arrivalPos="max">
        <route edges="edge-north-NS edge-south-NS"/>
    </vehicle>
    <vehicle id="default-flow-route-edge-south-SN_0_base-edge-west-EW_0_max--6409505801511773193--8611841271810001168--2-0.0" type="actor-default--7972158289131019312" depart="127.00" departLane="0" departPos="base" departSpeed="max" arrivalLane="0" arrivalPos="max">
        <route edges="edge-south-SN edge-west-EW"/>
    </vehicle>
    <vehicle id="default-flow-route-edge-south-SN_0_base-edge-west-EW_0_max--6409505801511773193--8611841271810001168--3-0.0" type="actor-default--7972158289131019312" depart="137.00" departLane="0" departPos="base" departSpeed="max" arrivalLane="0" arrivalPos="max">
        <route edges="edge-south-SN edge-west-EW"/>
    </vehicle>
    <vehicle id="default-flow-route-edge-north-NS_0_base-edge-east-WE_0_max-7619780531447017676--8611841271810001168--2301-0.0" type="actor-default--7972158289131019312" depart="139.00" departLane="0" departPos="base" departSpeed="max" arrivalLane="0" arrivalPos="max">
        <route edges="edge-north-NS edge-east-WE"/>
    </vehicle>
    <vehicle id="default-flow-route-edge-south-SN_0_base-edge-north-SN_0_max--3330647475869855925--8611841271810001168--204-0.0" type="actor-default--7972158289131019312" depart="148.00" departLane="0" departPos="base" departSpeed="max" arrivalLane="0" arrivalPos="max">
        <route edges="edge-south-SN edge-north-SN"/>
    </vehicle>
    <vType id="actor-blocker-132896880522379009" minGap="1.04" maxSpeed="55.50" speedFactor="normc(0.20,0.10,0.20,2.00)" vClass="passenger" impatience="0.00" lcStrategic="0" lcCooperative="0.0" lcSpeedGain="1" lcKeepRight="0.0" lcOpposite="0" lcPushy="0" lcImpatience="0.0" lcTimeToImpatience="1000" lcOvertakeRight="0" jmIgnoreFoeProb="0.0" jmTimegapMinor="1.0" accel="3.0" decel="7.5" sigma="0"/>
    <vehicle id="blocker-flow-route-edge-south-SN_0_base-edge-north-SN_0_max--3330647475869855925---3208195399076283168--205-0.0" type="actor-blocker-132896880522379009" depart="166.00" departLane="0" departPos="base" departSpeed="max" arrivalLane="0" arrivalPos="max">
        <route edges="edge-south-SN edge-north-SN"/>
    </vehicle>
    <vehicle id="default-flow-route-edge-north-NS_0_base-edge-west-EW_0_max--9201690798924167721--8611841271810001168--2202-0.0" type="actor-default--7972158289131019312" depart="175.00" departLane="0" departPos="base" departSpeed="max" arrivalLane="0" arrivalPos="max">
        <route edges="edge-north-NS edge-west-EW"/>
    </vehicle>
    <vehicle id="default-flow-route-edge-south-SN_0_base-edge-east-WE_0_max-8376576316283808492--8611841271810001168--100-0.0" type="actor-default--7972158289131019312" depart="182.00" departLane="0" departPos="base" departSpeed="max" arrivalLane="0" arrivalPos="max">
        <route edges="edge-south-SN edge-east-WE"/>
    </vehicle>
    <vehicle id="default-flow-route-edge-south-SN_0_base-edge-east-WE_0_max-8376576316283808492--8611841271810001168--101-0.0" type="actor-default--7972158289131019312" depart="198.00" departLane="0" departPos="base" departSpeed="max" arrivalLane="0" arrivalPos="max">
        <route edges="edge-south-SN edge-east-WE"/>
    </vehicle>
    <vehicle id="aggressive-flow-route-edge-north-NS_0_base-edge-south-NS_0_max-6354198324389824595--1777544607255311857--1202-0.0" type="actor-aggressive-538156094826588776" depart="209.00" departLane="0" departPos="base" departSpeed="max" arrivalLane="0" arrivalPos="max">
        <route edges="edge-north-NS edge-south-NS"/>
    </vehicle>
    <vehicle id="aggressive-flow-route-edge-north-NS_0_base-edge-south-NS_0_max-6354198324389824595--1777544607255311857--1203-0.0" type="actor-aggressive-538156094826588776" depart="212.00" departLane="0" departPos="base" departSpeed="max" arrivalLane="0" arrivalPos="max">
        <route edges="edge-north-NS edge-south-NS"/>
    </vehicle>
    <vehicle id="default-flow-route-edge-south-SN_0_base-edge-east-WE_0_max-8376576316283808492--8611841271810001168--102-0.0" type="actor-default--7972158289131019312" depart="217.00" departLane="0" departPos="base" departSpeed="max" arrivalLane="0" arrivalPos="max">
        <route edges="edge-south-SN edge-east-WE"/>
    </vehicle>
    <vehicle id="aggressive-flow-route-edge-north-NS_0_base-edge-east-WE_0_max-7619780531447017676--1777544607255311857--2302-0.0" type="actor-aggressive-538156094826588776" depart="221.00" departLane="0" departPos="base" departSpeed="max" arrivalLane="0" arrivalPos="max">
        <route edges="edge-north-NS edge-east-WE"/>
    </vehicle>
    <vehicle id="default-flow-route-edge-north-NS_0_base-edge-west-EW_0_max--9201690798924167721--8611841271810001168--2203-0.0" type="actor-default--7972158289131019312" depart="228.00" departLane="0" departPos="base" departSpeed="max" arrivalLane="0" arrivalPos="max">
        <route edges="edge-north-NS edge-west-EW"/>
    </vehicle>
    <vehicle id="default-flow-route-edge-north-NS_0_base-edge-south-NS_0_max-6354198324389824595--8611841271810001168--1204-0.0" type="actor-default--7972158289131019312" depart="231.00" departLane="0" departPos="base" departSpeed="max" arrivalLane="0" arrivalPos="max">
        <route edges="edge-north-NS edge-south-NS"/>
    </vehicle>
    <vehicle id="default-flow-route-edge-south-SN_0_base-edge-north-SN_0_max--3330647475869855925--8611841271810001168--206-0.0" type="actor-default--7972158289131019312" depart="242.00" departLane="0" departPos="base" departSpeed="max" arrivalLane="0" arrivalPos="max">
        <route edges="edge-south-SN edge-north-SN"/>
    </vehicle>
    <vehicle id="default-flow-route-edge-south-SN_0_base-edge-west-EW_0_max--6409505801511773193--8611841271810001168--4-0.0" type="actor-default--7972158289131019312" depart="252.00" departLane="0" departPos="base" departSpeed="max" arrivalLane="0" arrivalPos="max">
        <route edges="edge-south-SN edge-west-EW"/>
    </vehicle>
    <vehicle id="default-flow-route-edge-north-NS_0_base-edge-west-EW_0_max--9201690798924167721--8611841271810001168--2204-0.0" type="actor-default--7972158289131019312" depart="258.00" departLane="0" departPos="base" departSpeed="max" arrivalLane="0" arrivalPos="max">
        <route edges="edge-north-NS edge-west-EW"/>
    </vehicle>
    <vehicle id="default-flow-route-edge-south-SN_0_base-edge-east-WE_0_max-8376576316283808492--8611841271810001168--103-0.0" type="actor-default--7972158289131019312" depart="258.00" departLane="0" departPos="base" departSpeed="max" arrivalLane="0" arrivalPos="max">
        <route edges="edge-south-SN edge-east-WE"/>
    </vehicle>
    <vehicle id="default-flow-route-edge-north-NS_0_base-edge-south-NS_0_max-6354198324389824595--8611841271810001168--1205-0.0" type="actor-default--7972158289131019312" depart="259.00" departLane="0" departPos="base" departSpeed="max" arrivalLane="0" arrivalPos="max">
        <route edges="edge-north-NS edge-south-NS"/>
    </vehicle>
    <vehicle id="default-flow-route-edge-north-NS_0_base-edge-west-EW_0_max--9201690798924167721--8611841271810001168--2205-0.0" type="actor-default--7972158289131019312" depart="292.00" departLane="0" departPos="base" departSpeed="max" arrivalLane="0" arrivalPos="max">
        <route edges="edge-north-NS edge-west-EW"/>
    </vehicle>
    <vehicle id="aggressive-flow-route-edge-north-NS_0_base-edge-west-EW_0_max--9201690798924167721--1777544607255311857--2206-0.0" type="actor-aggressive-538156094826588776" depart="312.00" departLane="0" departPos="base" departSpeed="max" arrivalLane="0" arrivalPos="max">
        <route edges="edge-north-NS edge-west-EW"/>
    </vehicle>
    <vehicle id="default-flow-route-edge-south-SN_0_base-edge-north-SN_0_max--3330647475869855925--8611841271810001168--207-0.0" type="actor-default--7972158289131019312" depart="313.00" departLane="0" departPos="base" departSpeed="max" arrivalLane="0" arrivalPos="max">
        <route edges="edge-south-SN edge-north-SN"/>
    </vehicle>
    <vehicle id="default-flow-route-edge-north-NS_0_base-edge-east-WE_0_max-7619780531447017676--8611841271810001168--2303-0.0" type="actor-default--7972158289131019312" depart="335.00" departLane="0" departPos="base" departSpeed="max" arrivalLane="0" arrivalPos="max">
        <route edges="edge-north-NS edge-east-WE"/>
    </vehicle>
    <vehicle id="aggressive-flow-route-edge-south-SN_0_base-edge-east-WE_0_max-8376576316283808492--1777544607255311857--104-0.0" type="actor-aggressive-538156094826588776" depart="343.00" departLane="0" departPos="base" departSpeed="max" arrivalLane="0" arrivalPos="max">
        <route edges="edge-south-SN edge-east-WE"/>
    </vehicle>
    <vehicle id="default-flow-route-edge-south-SN_0_base-edge-north-SN_0_max--3330647475869855925--8611841271810001168--208-0.0" type="actor-default--7972158289131019312" depart="352.00" departLane="0" departPos="base" departSpeed="max" arrivalLane="0" arrivalPos="max">
        <route edges="edge-south-SN edge-north-SN"/>
    </vehicle>
    <vehicle id="default-flow-route-edge-south-SN_0_base-edge-east-WE_0_max-8376576316283808492--8611841271810001168--105-0.0" type="actor-default--7972158289131019312" depart="381.00" departLane="0" departPos="base" departSpeed="max" arrivalLane="0" arrivalPos="max">
        <route edges="edge-south-SN edge-east-WE"/>
    </vehicle>
    <vehicle id="default-flow-route-edge-south-SN_0_base-edge-north-SN_0_max--3330647475869855925--8611841271810001168--209-0.0" type="actor-default--7972158289131019312" depart="382.00" departLane="0" departPos="base" departSpeed="max" arrivalLane="0" arrivalPos="max">
        <route edges="edge-south-SN edge-north-SN"/>
    </vehicle>
    <vehicle id="default-flow-route-edge-north-NS_0_base-edge-west-EW_0_max--9201690798924167721--8611841271810001168--2207-0.0" type="actor-default--7972158289131019312" depart="386.00" departLane="0" departPos="base" departSpeed="max" arrivalLane="0" arrivalPos="max">
        <route edges="edge-north-NS edge-west-EW"/>
    </vehicle>
    <vehicle id="cautious-flow-route-edge-north-NS_0_base-edge-south-NS_0_max-6354198324389824595--5651710443200048507--1206-0.0" type="actor-cautious--6965944383977896862" depart="394.00" departLane="0" departPos="base" departSpeed="max" arrivalLane="0" arrivalPos="max">
        <route edges="edge-north-NS edge-south-NS"/>
    </vehicle>
    <vehicle id="cautious-flow-route-edge-south-SN_0_base-edge-west-EW_0_max--6409505801511773193--5651710443200048507--5-0.0" type="actor-cautious--6965944383977896862" depart="402.00" departLane="0" departPos="base" departSpeed="max" arrivalLane="0" arrivalPos="max">
        <route edges="edge-south-SN edge-west-EW"/>
    </vehicle>
    <vehicle id="default-flow-route-edge-north-NS_0_base-edge-west-EW_0_max--9201690798924167721--8611841271810001168--2208-0.0" type="actor-default--7972158289131019312" depart="409.00" departLane="0" departPos="base" departSpeed="max" arrivalLane="0" arrivalPos="max">
        <route edges="edge-north-NS edge-west-EW"/>
    </vehicle>
    <vehicle id="default-flow-route-edge-south-SN_0_base-edge-east-WE_0_max-8376576316283808492--8611841271810001168--106-0.0" type="actor-default--7972158289131019312" depart="421.00" departLane="0" departPos="base" departSpeed="max" arrivalLane="0" arrivalPos="max">
        <route edges="edge-south-SN edge-east-WE"/>
    </vehicle>
    <vehicle id="default-flow-route-edge-north-NS_0_base-edge-south-NS_0_max-6354198324389824595--8611841271810001168--1207-0.0" type="actor-default--7972158289131019312" depart="426.00" departLane="0" departPos="base" departSpeed="max" arrivalLane="0" arrivalPos="max">
        <route edges="edge-north-NS edge-south-NS"/>
    </vehicle>
    <vehicle id="default-flow-route-edge-north-NS_0_base-edge-east-WE_0_max-7619780531447017676--8611841271810001168--2304-0.0" type="actor-default--7972158289131019312" depart="470.00" departLane="0" departPos="base" departSpeed="max" arrivalLane="0" arrivalPos="max">
        <route edges="edge-north-NS edge-east-WE"/>
    </vehicle>
    <vehicle id="default-flow-route-edge-north-NS_0_base-edge-south-NS_0_max-6354198324389824595--8611841271810001168--1208-0.0" type="actor-default--7972158289131019312" depart="484.00" departLane="0" departPos="base" departSpeed="max" arrivalLane="0" arrivalPos="max">
        <route edges="edge-north-NS edge-south-NS"/>
    </vehicle>
    <vehicle id="cautious-flow-route-edge-south-SN_0_base-edge-east-WE_0_max-8376576316283808492--5651710443200048507--107-0.0" type="actor-cautious--6965944383977896862" depart="487.00" departLane="0" departPos="base" departSpeed="max" arrivalLane="0" arrivalPos="max">
        <route edges="edge-south-SN edge-east-WE"/>
    </vehicle>
    <vehicle id="default-flow-route-edge-south-SN_0_base-edge-west-EW_0_max--6409505801511773193--8611841271810001168--6-0.0" type="actor-default--7972158289131019312" depart="488.00" departLane="0" departPos="base" departSpeed="max" arrivalLane="0" arrivalPos="max">
        <route edges="edge-south-SN edge-west-EW"/>
    </vehicle>
    <vehicle id="default-flow-route-edge-north-NS_0_base-edge-east-WE_0_max-7619780531447017676--8611841271810001168--2305-0.0" type="actor-default--7972158289131019312" depart="495.00" departLane="0" departPos="base" departSpeed="max" arrivalLane="0" arrivalPos="max">
        <route edges="edge-north-NS edge-east-WE"/>
    </vehicle>
    <vehicle id="default-flow-route-edge-south-SN_0_base-edge-west-EW_0_max--6409505801511773193--8611841271810001168--7-0.0" type="actor-default--7972158289131019312" depart="524.00" departLane="0" departPos="base" departSpeed="max" arrivalLane="0" arrivalPos="max">
        <route edges="edge-south-SN edge-west-EW"/>
    </vehicle>
    <vehicle id="default-flow-route-edge-south-SN_0_base-edge-west-EW_0_max--6409505801511773193--8611841271810001168--8-0.0" type="actor-default--7972158289131019312" depart="527.00" departLane="0" departPos="base" departSpeed="max" arrivalLane="0" arrivalPos="max">
        <route edges="edge-south-SN edge-west-EW"/>
    </vehicle>
    <vehicle id="default-flow-route-edge-north-NS_0_base-edge-south-NS_0_max-6354198324389824595--8611841271810001168--1209-0.0" type="actor-default--7972158289131019312" depart="533.00" departLane="0" departPos="base" departSpeed="max" arrivalLane="0" arrivalPos="max">
        <route edges="edge-north-NS edge-south-NS"/>
    </vehicle>
    <vehicle id="default-flow-route-edge-south-SN_0_base-edge-west-EW_0_max--6409505801511773193--8611841271810001168--9-0.0" type="actor-default--7972158289131019312" depart="542.00" departLane="0" departPos="base" departSpeed="max" arrivalLane="0" arrivalPos="max">
        <route edges="edge-south-SN edge-west-EW"/>
    </vehicle>
    <vehicle id="default-flow-route-edge-north-NS_0_base-edge-east-WE_0_max-7619780531447017676--8611841271810001168--2306-0.0" type="actor-default--7972158289131019312" depart="572.00" departLane="0" departPos="base" departSpeed="max" arrivalLane="0" arrivalPos="max">
        <route edges="edge-north-NS edge-east-WE"/>
    </vehicle>
    <vehicle id="default-flow-route-edge-north-NS_0_base-edge-south-NS_0_max-6354198324389824595--8611841271810001168--1210-0.0" type="actor-default--7972158289131019312" depart="577.00" departLane="0" departPos="base" departSpeed="max" arrivalLane="0" arrivalPos="max">
        <route edges="edge-north-NS edge-south-NS"/>
    </vehicle>
    <vehicle id="default-flow-route-edge-south-SN_0_base-edge-north-SN_0_max--3330647475869855925--8611841271810001168--210-0.0" type="actor-default--7972158289131019312" depart="591.00" departLane="0" departPos="base" departSpeed="max" arrivalLane="0" arrivalPos="max">
        <route edges="edge-south-SN edge-north-SN"/>
    </vehicle>
    <vehicle id="default-flow-route-edge-south-SN_0_base-edge-east-WE_0_max-8376576316283808492--8611841271810001168--108-0.0" type="actor-default--7972158289131019312" depart="593.00" departLane="0" departPos="base" departSpeed="max" arrivalLane="0" arrivalPos="max">
        <route edges="edge-south-SN edge-east-WE"/>
    </vehicle>
    <vehicle id="aggressive-flow-route-edge-north-NS_0_base-edge-east-WE_0_max-7619780531447017676--1777544607255311857--2307-0.0" type="actor-aggressive-538156094826588776" depart="612.00" departLane="0" departPos="base" departSpeed="max" arrivalLane="0" arrivalPos="max">
        <route edges="edge-north-NS edge-east-WE"/>
    </vehicle>
    <vehicle id="default-flow-route-edge-north-NS_0_base-edge-east-WE_0_max-7619780531447017676--8611841271810001168--2308-0.0" type="actor-default--7972158289131019312" depart="629.00" departLane="0" departPos="base" departSpeed="max" arrivalLane="0" arrivalPos="max">
        <route edges="edge-north-NS edge-east-WE"/>
    </vehicle>
    <vehicle id="default-flow-route-edge-south-SN_0_base-edge-west-EW_0_max--6409505801511773193--8611841271810001168--10-0.0" type="actor-default--7972158289131019312" depart="637.00" departLane="0" departPos="base" departSpeed="max" arrivalLane="0" arrivalPos="max">
        <route edges="edge-south-SN edge-west-EW"/>
    </vehicle>
    <vehicle id="default-flow-route-edge-south-SN_0_base-edge-west-EW_0_max--6409505801511773193--8611841271810001168--11-0.0" type="actor-default--7972158289131019312" depart="642.00" departLane="0" departPos="base" departSpeed="max" arrivalLane="0" arrivalPos="max">
        <route edges="edge-south-SN edge-west-EW"/>
    </vehicle>
    <vehicle id="aggressive-flow-route-edge-north-NS_0_base-edge-west-EW_0_max--9201690798924167721--1777544607255311857--2209-0.0" type="actor-aggressive-538156094826588776" depart="648.00" departLane="0" departPos="base" departSpeed="max" arrivalLane="0" arrivalPos="max">
        <route edges="edge-north-NS edge-west-EW"/>
    </vehicle>
    <vehicle id="default-flow-route-edge-north-NS_0_base-edge-west-EW_0_max--9201690798924167721--8611841271810001168--2210-0.0" type="actor-default--7972158289131019312" depart="652.00" departLane="0" departPos="base" departSpeed="max" arrivalLane="0" arrivalPos="max">
        <route edges="edge-north-NS edge-west-EW"/>
    </vehicle>
    <vehicle id="default-flow-route-edge-north-NS_0_base-edge-east-WE_0_max-7619780531447017676--8611841271810001168--2309-0.0" type="actor-default--7972158289131019312" depart="686.00" departLane="0" departPos="base" departSpeed="max" arrivalLane="0" arrivalPos="max">
        <route edges="edge-north-NS edge-east-WE"/>
    </vehicle>
    <vehicle id="aggressive-flow-route-edge-south-SN_0_base-edge-north-SN_0_max--3330647475869855925--1777544607255311857--211-0.0" type="actor-aggressive-538156094826588776" depart="692.00" departLane="0" departPos="base" departSpeed="max" arrivalLane="0" arrivalPos="max">
        <route edges="edge-south-SN edge-north-SN"/>
    </vehicle>
    <vehicle id="default-flow-route-edge-south-SN_0_base-edge-north-SN_0_max--3330647475869855925--8611841271810001168--212-0.0" type="actor-default--7972158289131019312" depart="695.00" departLane="0" departPos="base" departSpeed="max" arrivalLane="0" arrivalPos="max">
        <route edges="edge-south-SN edge-north-SN"/>
    </vehicle>
    <vehicle id="aggressive-flow-route-edge-south-SN_0_base-edge-east-WE_0_max-8376576316283808492--1777544607255311857--109-0.0" type="actor-aggressive-538156094826588776" depart="710.00" departLane="0" departPos="base" departSpeed="max" arrivalLane="0" arrivalPos="max">
        <route edges="edge-south-SN edge-east-WE"/>
    </vehicle>
    <vehicle id="default-flow-route-edge-north-NS_0_base-edge-west-EW_0_max--9201690798924167721--8611841271810001168--2211-0.0" type="actor-default--7972158289131019312" depart="727.00" departLane="0" departPos="base" departSpeed="max" arrivalLane="0" arrivalPos="max">
        <route edges="edge-north-NS edge-west-EW"/>
    </vehicle>
    <vehicle id="default-flow-route-edge-south-SN_0_base-edge-east-WE_0_max-8376576316283808492--8611841271810001168--110-0.0" type="actor-default--7972158289131019312" depart="730.00" departLane="0" departPos="base" departSpeed="max" arrivalLane="0" arrivalPos="max">
        <route edges="edge-south-SN edge-east-WE"/>
    </vehicle>
    <vehicle id="default-flow-route-edge-north-NS_0_base-edge-south-NS_0_max-6354198324389824595--8611841271810001168--1211-0.0" type="actor-default--7972158289131019312" depart="741.00" departLane="0" departPos="base" departSpeed="max" arrivalLane="0" arrivalPos="max">
        <route edges="edge-north-NS edge-south-NS"/>
    </vehicle>
    <vehicle id="default-flow-route-edge-south-SN_0_base-edge-west-EW_0_max--6409505801511773193--8611841271810001168--12-0.0" type="actor-default--7972158289131019312" depart="754.00" departLane="0" departPos="base" departSpeed="max" arrivalLane="0" arrivalPos="max">
        <route edges="edge-south-SN edge-west-EW"/>
    </vehicle>
    <vehicle id="aggressive-flow-route-edge-south-SN_0_base-edge-north-SN_0_max--3330647475869855925--1777544607255311857--213-0.0" type="actor-aggressive-538156094826588776" depart="774.00" departLane="0" departPos="base" departSpeed="max" arrivalLane="0" arrivalPos="max">
        <route edges="edge-south-SN edge-north-SN"/>
    </vehicle>
    <vehicle id="blocker-flow-route-edge-north-NS_0_base-edge-south-NS_0_max-6354198324389824595---3208195399076283168--1212-0.0" type="actor-blocker-132896880522379009" depart="780.00" departLane="0" departPos="base" departSpeed="max" arrivalLane="0" arrivalPos="max">
        <route edges="edge-north-NS edge-south-NS"/>
    </vehicle>
    <vehicle id="default-flow-route-edge-north-NS_0_base-edge-south-NS_0_max-6354198324389824595--8611841271810001168--1213-0.0" type="actor-default--7972158289131019312" depart="783.00" departLane="0" departPos="base" departSpeed="max" arrivalLane="0" arrivalPos="max">
        <route edges="edge-north-NS edge-south-NS"/>
    </vehicle>
    <vehicle id="default-flow-route-edge-south-SN_0_base-edge-east-WE_0_max-8376576316283808492--8611841271810001168--111-0.0" type="actor-default--7972158289131019312" depart="784.00" departLane="0" departPos="base" departSpeed="max" arrivalLane="0" arrivalPos="max">
        <route edges="edge-south-SN edge-east-WE"/>
    </vehicle>
    <vehicle id="default-flow-route-edge-north-NS_0_base-edge-east-WE_0_max-7619780531447017676--8611841271810001168--2310-0.0" type="actor-default--7972158289131019312" depart="809.00" departLane="0" departPos="base" departSpeed="max" arrivalLane="0" arrivalPos="max">
        <route edges="edge-north-NS edge-east-WE"/>
    </vehicle>
    <vehicle id="default-flow-route-edge-north-NS_0_base-edge-west-EW_0_max--9201690798924167721--8611841271810001168--2212-0.0" type="actor-default--7972158289131019312" depart="826.00" departLane="0" departPos="base" departSpeed="max" arrivalLane="0" arrivalPos="max">
        <route edges="edge-north-NS edge-west-EW"/>
    </vehicle>
    <vehicle id="default-flow-route-edge-north-NS_0_base-edge-south-NS_0_max-6354198324389824595--8611841271810001168--1214-0.0" type="actor-default--7972158289131019312" depart="828.00" departLane="0" departPos="base" departSpeed="max" arrivalLane="0" arrivalPos="max">
        <route edges="edge-north-NS edge-south-NS"/>
    </vehicle>
    <vehicle id="default-flow-route-edge-south-SN_0_base-edge-east-WE_0_max-8376576316283808492--8611841271810001168--112-0.0" type="actor-default--7972158289131019312" depart="829.00" departLane="0" departPos="base" departSpeed="max" arrivalLane="0" arrivalPos="max">
        <route edges="edge-south-SN edge-east-WE"/>
    </vehicle>
    <vehicle id="default-flow-route-edge-south-SN_0_base-edge-east-WE_0_max-8376576316283808492--8611841271810001168--113-0.0" type="actor-default--7972158289131019312" depart="840.00" departLane="0" departPos="base" departSpeed="max" arrivalLane="0" arrivalPos="max">
        <route edges="edge-south-SN edge-east-WE"/>
    </vehicle>