<?xml version="1.0" encoding="UTF-8"?>

<!-- generated on 2021-05-21 00:45:33 by Eclipse SUMO duarouter Version 1.9.2
<configuration xmlns:xsi="http://www.w3.org/2001/XMLSchema-instance" xsi:noNamespaceSchemaLocation="http://sumo.dlr.de/xsd/duarouterConfiguration.xsd">

    <input>
        <net-file value="/home/dikshant/github/SMARTS/scenarios/intersections/2lane/shifted_map-AUTOGEN.net.xml"/>
        <route-files value="/tmp/tmp2n6bi21c/trips.trips.xml"/>
    </input>

    <output>
        <output-file value="/home/dikshant/github/SMARTS/scenarios/intersections/2lane/traffic/vertical.rou.xml"/>
        <alternatives-output value="/home/dikshant/github/SMARTS/scenarios/intersections/2lane/traffic/vertical.rou.alt.xml"/>
    </output>

    <processing>
        <unsorted-input value="true"/>
        <repair value="true"/>
    </processing>

    <report>
        <error-log value="/home/dikshant/.smarts/_duarouter_routing/traffic/vertical.log"/>
        <no-step-log value="true"/>
    </report>

    <random_number>
        <seed value="42"/>
    </random_number>

</configuration>
-->

<routes xmlns:xsi="http://www.w3.org/2001/XMLSchema-instance" xsi:noNamespaceSchemaLocation="http://sumo.dlr.de/xsd/routes_file.xsd">
    <vType id="actor-car-7837202730307149150" minGap="2.50" maxSpeed="55.50" speedFactor="normc(1.00,0.20,0.20,2.00)" vClass="passenger" impatience="1.00" lcCooperative="0.25" lcImpatience="1" jmDriveAfterYellowTime="1.0" jmDriveAfterRedTime="1.5" accel="2.6" decel="4.5" sigma="0.5"/>
    <vehicle id="car-flow-route-edge-north-NS_0_random-edge-south-NS_0_random-6447143725015065910---6635490645018080946--0-0.0" type="actor-car-7837202730307149150" depart="0.00" departLane="0" departPos="random" departSpeed="max" arrivalLane="0" arrivalPos="random">
        <route edges="edge-north-NS edge-south-NS"/>
    </vehicle>
    <vType id="actor-car-2546177664402711067" minGap="2.50" maxSpeed="55.50" speedFactor="normc(0.80,0.20,0.20,2.00)" vClass="passenger" impatience="0.50" lcCooperative="0.5" lcImpatience="0" jmDriveAfterYellowTime="1.0" accel="2.6" decel="4.5" sigma="0.5"/>
    <vehicle id="car-flow-route-edge-north-NS_0_random-edge-south-NS_0_random-6447143725015065910---6635490645018080946--0-1.0" type="actor-car-2546177664402711067" depart="0.00" departLane="0" departPos="random" departSpeed="max" arrivalLane="0" arrivalPos="random">
        <route edges="edge-north-NS edge-south-NS"/>
    </vehicle>
    <vehicle id="car-flow-route-edge-south-SN_0_random-edge-north-SN_0_random--6410772720217043624---6635490645018080946--1-0.0" type="actor-car-7837202730307149150" depart="0.00" departLane="0" departPos="random" departSpeed="max" arrivalLane="0" arrivalPos="random">
        <route edges="edge-south-SN edge-north-SN"/>
    </vehicle>
    <vehicle id="car-flow-route-edge-south-SN_0_random-edge-north-SN_0_random--6410772720217043624---6635490645018080946--1-1.0" type="actor-car-2546177664402711067" depart="0.00" departLane="0" departPos="random" departSpeed="max" arrivalLane="0" arrivalPos="random">
        <route edges="edge-south-SN edge-north-SN"/>
    </vehicle>
</routes>
