<?xml version="1.0" encoding="UTF-8"?>

<!-- generated on 2021-05-21 00:45:28 by Eclipse SUMO duarouter Version 1.9.2
<configuration xmlns:xsi="http://www.w3.org/2001/XMLSchema-instance" xsi:noNamespaceSchemaLocation="http://sumo.dlr.de/xsd/duarouterConfiguration.xsd">

    <input>
        <net-file value="scenarios/straight/map.net.xml"/>
        <route-files value="/tmp/tmp629leqe7/trips.trips.xml"/>
    </input>

    <output>
        <output-file value="scenarios/straight/traffic/all.rou.xml"/>
        <alternatives-output value="scenarios/straight/traffic/all.rou.alt.xml"/>
    </output>

    <processing>
        <unsorted-input value="true"/>
        <repair value="true"/>
    </processing>

    <report>
        <error-log value="/home/dikshant/.smarts/_duarouter_routing/traffic/all.log"/>
        <no-step-log value="true"/>
    </report>

    <random_number>
        <seed value="42"/>
    </random_number>

</configuration>
-->

<routes xmlns:xsi="http://www.w3.org/2001/XMLSchema-instance" xsi:noNamespaceSchemaLocation="http://sumo.dlr.de/xsd/routes_file.xsd">
    <vType id="actor-car--7603777082910996887" minGap="2.50" maxSpeed="55.50" speedFactor="normc(1.00,0.10,0.20,2.00)" vClass="passenger" accel="2.6" decel="4.5" sigma="0.5"/>
    <vehicle id="car-flow-route-west_0_0-east_0_max-641278529016013199---1186896431928464155--0-0.0" type="actor-car--7603777082910996887" depart="0.00" departLane="0" departPos="0.00" departSpeed="max" arrivalLane="0" arrivalPos="max">
        <route edges="west east"/>
    </vehicle>
    <vehicle id="car-flow-route-west_1_0-east_1_max--8225652294069766891---1186896431928464155--1-0.0" type="actor-car--7603777082910996887" depart="0.00" departLane="1" departPos="0.00" departSpeed="max" arrivalLane="1" arrivalPos="max">
        <route edges="west east"/>
    </vehicle>
    <vehicle id="car-flow-route-west_2_0-east_2_max--7249692849146943413---1186896431928464155--2-0.0" type="actor-car--7603777082910996887" depart="0.00" departLane="2" departPos="0.00" departSpeed="max" arrivalLane="2" arrivalPos="max">
        <route edges="west east"/>
    </vehicle>
    <vehicle id="car-flow-route-west_0_0-east_0_max-641278529016013199---1186896431928464155--0-0.1" type="actor-car--7603777082910996887" depart="72.00" departLane="0" departPos="0.00" departSpeed="max" arrivalLane="0" arrivalPos="max">
        <route edges="west east"/>
    </vehicle>
    <vehicle id="car-flow-route-west_1_0-east_1_max--8225652294069766891---1186896431928464155--1-0.1" type="actor-car--7603777082910996887" depart="72.00" departLane="1" departPos="0.00" departSpeed="max" arrivalLane="1" arrivalPos="max">
        <route edges="west east"/>
    </vehicle>
    <vehicle id="car-flow-route-west_2_0-east_2_max--7249692849146943413---1186896431928464155--2-0.1" type="actor-car--7603777082910996887" depart="72.00" departLane="2" departPos="0.00" departSpeed="max" arrivalLane="2" arrivalPos="max">
        <route edges="west east"/>
    </vehicle>
    <vehicle id="car-flow-route-west_0_0-east_0_max-641278529016013199---1186896431928464155--0-0.2" type="actor-car--7603777082910996887" depart="144.00" departLane="0" departPos="0.00" departSpeed="max" arrivalLane="0" arrivalPos="max">
        <route edges="west east"/>
    </vehicle>
    <vehicle id="car-flow-route-west_1_0-east_1_max--8225652294069766891---1186896431928464155--1-0.2" type="actor-car--7603777082910996887" depart="144.00" departLane="1" departPos="0.00" departSpeed="max" arrivalLane="1" arrivalPos="max">
        <route edges="west east"/>
    </vehicle>
    <vehicle id="car-flow-route-west_2_0-east_2_max--7249692849146943413---1186896431928464155--2-0.2" type="actor-car--7603777082910996887" depart="144.00" departLane="2" departPos="0.00" departSpeed="max" arrivalLane="2" arrivalPos="max">
        <route edges="west east"/>
    </vehicle>
    <vehicle id="car-flow-route-west_0_0-east_0_max-641278529016013199---1186896431928464155--0-0.3" type="actor-car--7603777082910996887" depart="216.00" departLane="0" departPos="0.00" departSpeed="max" arrivalLane="0" arrivalPos="max">
        <route edges="west east"/>
    </vehicle>
    <vehicle id="car-flow-route-west_1_0-east_1_max--8225652294069766891---1186896431928464155--1-0.3" type="actor-car--7603777082910996887" depart="216.00" departLane="1" departPos="0.00" departSpeed="max" arrivalLane="1" arrivalPos="max">
        <route edges="west east"/>
    </vehicle>
    <vehicle id="car-flow-route-west_2_0-east_2_max--7249692849146943413---1186896431928464155--2-0.3" type="actor-car--7603777082910996887" depart="216.00" departLane="2" departPos="0.00" departSpeed="max" arrivalLane="2" arrivalPos="max">
        <route edges="west east"/>
    </vehicle>
    <vehicle id="car-flow-route-west_0_0-east_0_max-641278529016013199---1186896431928464155--0-0.4" type="actor-car--7603777082910996887" depart="288.00" departLane="0" departPos="0.00" departSpeed="max" arrivalLane="0" arrivalPos="max">
        <route edges="west east"/>
    </vehicle>
    <vehicle id="car-flow-route-west_1_0-east_1_max--8225652294069766891---1186896431928464155--1-0.4" type="actor-car--7603777082910996887" depart="288.00" departLane="1" departPos="0.00" departSpeed="max" arrivalLane="1" arrivalPos="max">
        <route edges="west east"/>
    </vehicle>
    <vehicle id="car-flow-route-west_2_0-east_2_max--7249692849146943413---1186896431928464155--2-0.4" type="actor-car--7603777082910996887" depart="288.00" departLane="2" departPos="0.00" departSpeed="max" arrivalLane="2" arrivalPos="max">
        <route edges="west east"/>
    </vehicle>
    <vehicle id="car-flow-route-west_0_0-east_0_max-641278529016013199---1186896431928464155--0-0.5" type="actor-car--7603777082910996887" depart="360.00" departLane="0" departPos="0.00" departSpeed="max" arrivalLane="0" arrivalPos="max">
        <route edges="west east"/>
    </vehicle>
    <vehicle id="car-flow-route-west_1_0-east_1_max--8225652294069766891---1186896431928464155--1-0.5" type="actor-car--7603777082910996887" depart="360.00" departLane="1" departPos="0.00" departSpeed="max" arrivalLane="1" arrivalPos="max">
        <route edges="west east"/>
    </vehicle>
    <vehicle id="car-flow-route-west_2_0-east_2_max--7249692849146943413---1186896431928464155--2-0.5" type="actor-car--7603777082910996887" depart="360.00" departLane="2" departPos="0.00" departSpeed="max" arrivalLane="2" arrivalPos="max">
        <route edges="west east"/>
    </vehicle>
    <vehicle id="car-flow-route-west_0_0-east_0_max-641278529016013199---1186896431928464155--0-0.6" type="actor-car--7603777082910996887" depart="432.00" departLane="0" departPos="0.00" departSpeed="max" arrivalLane="0" arrivalPos="max">
        <route edges="west east"/>
    </vehicle>
    <vehicle id="car-flow-route-west_1_0-east_1_max--8225652294069766891---1186896431928464155--1-0.6" type="actor-car--7603777082910996887" depart="432.00" departLane="1" departPos="0.00" departSpeed="max" arrivalLane="1" arrivalPos="max">
        <route edges="west east"/>
    </vehicle>
    <vehicle id="car-flow-route-west_2_0-east_2_max--7249692849146943413---1186896431928464155--2-0.6" type="actor-car--7603777082910996887" depart="432.00" departLane="2" departPos="0.00" departSpeed="max" arrivalLane="2" arrivalPos="max">
        <route edges="west east"/>
    </vehicle>
    <vehicle id="car-flow-route-west_0_0-east_0_max-641278529016013199---1186896431928464155--0-0.7" type="actor-car--7603777082910996887" depart="504.00" departLane="0" departPos="0.00" departSpeed="max" arrivalLane="0" arrivalPos="max">
        <route edges="west east"/>
    </vehicle>
    <vehicle id="car-flow-route-west_1_0-east_1_max--8225652294069766891---1186896431928464155--1-0.7" type="actor-car--7603777082910996887" depart="504.00" departLane="1" departPos="0.00" departSpeed="max" arrivalLane="1" arrivalPos="max">
        <route edges="west east"/>
    </vehicle>
    <vehicle id="car-flow-route-west_2_0-east_2_max--7249692849146943413---1186896431928464155--2-0.7" type="actor-car--7603777082910996887" depart="504.00" departLane="2" departPos="0.00" departSpeed="max" arrivalLane="2" arrivalPos="max">
        <route edges="west east"/>
    </vehicle>
    <vehicle id="car-flow-route-west_0_0-east_0_max-641278529016013199---1186896431928464155--0-0.8" type="actor-car--7603777082910996887" depart="576.00" departLane="0" departPos="0.00" departSpeed="max" arrivalLane="0" arrivalPos="max">
        <route edges="west east"/>
    </vehicle>
    <vehicle id="car-flow-route-west_1_0-east_1_max--8225652294069766891---1186896431928464155--1-0.8" type="actor-car--7603777082910996887" depart="576.00" departLane="1" departPos="0.00" departSpeed="max" arrivalLane="1" arrivalPos="max">
        <route edges="west east"/>
    </vehicle>
    <vehicle id="car-flow-route-west_2_0-east_2_max--7249692849146943413---1186896431928464155--2-0.8" type="actor-car--7603777082910996887" depart="576.00" departLane="2" departPos="0.00" departSpeed="max" arrivalLane="2" arrivalPos="max">
        <route edges="west east"/>
    </vehicle>
    <vehicle id="car-flow-route-west_0_0-east_0_max-641278529016013199---1186896431928464155--0-0.9" type="actor-car--7603777082910996887" depart="648.00" departLane="0" departPos="0.00" departSpeed="max" arrivalLane="0" arrivalPos="max">
        <route edges="west east"/>
    </vehicle>
    <vehicle id="car-flow-route-west_1_0-east_1_max--8225652294069766891---1186896431928464155--1-0.9" type="actor-car--7603777082910996887" depart="648.00" departLane="1" departPos="0.00" departSpeed="max" arrivalLane="1" arrivalPos="max">
        <route edges="west east"/>
    </vehicle>
    <vehicle id="car-flow-route-west_2_0-east_2_max--7249692849146943413---1186896431928464155--2-0.9" type="actor-car--7603777082910996887" depart="648.00" departLane="2" departPos="0.00" departSpeed="max" arrivalLane="2" arrivalPos="max">
        <route edges="west east"/>
    </vehicle>
    <vehicle id="car-flow-route-west_0_0-east_0_max-641278529016013199---1186896431928464155--0-0.10" type="actor-car--7603777082910996887" depart="720.00" departLane="0" departPos="0.00" departSpeed="max" arrivalLane="0" arrivalPos="max">
        <route edges="west east"/>
    </vehicle>
    <vehicle id="car-flow-route-west_1_0-east_1_max--8225652294069766891---1186896431928464155--1-0.10" type="actor-car--7603777082910996887" depart="720.00" departLane="1" departPos="0.00" departSpeed="max" arrivalLane="1" arrivalPos="max">
        <route edges="west east"/>
    </vehicle>
    <vehicle id="car-flow-route-west_2_0-east_2_max--7249692849146943413---1186896431928464155--2-0.10" type="actor-car--7603777082910996887" depart="720.00" departLane="2" departPos="0.00" departSpeed="max" arrivalLane="2" arrivalPos="max">
        <route edges="west east"/>
    </vehicle>
    <vehicle id="car-flow-route-west_0_0-east_0_max-641278529016013199---1186896431928464155--0-0.11" type="actor-car--7603777082910996887" depart="792.00" departLane="0" departPos="0.00" departSpeed="max" arrivalLane="0" arrivalPos="max">
        <route edges="west east"/>
    </vehicle>
    <vehicle id="car-flow-route-west_1_0-east_1_max--8225652294069766891---1186896431928464155--1-0.11" type="actor-car--7603777082910996887" depart="792.00" departLane="1" departPos="0.00" departSpeed="max" arrivalLane="1" arrivalPos="max">
        <route edges="west east"/>
    </vehicle>
    <vehicle id="car-flow-route-west_2_0-east_2_max--7249692849146943413---1186896431928464155--2-0.11" type="actor-car--7603777082910996887" depart="792.00" departLane="2" departPos="0.00" departSpeed="max" arrivalLane="2" arrivalPos="max">
        <route edges="west east"/>
    </vehicle>
    <vehicle id="car-flow-route-west_0_0-east_0_max-641278529016013199---1186896431928464155--0-0.12" type="actor-car--7603777082910996887" depart="864.00" departLane="0" departPos="0.00" departSpeed="max" arrivalLane="0" arrivalPos="max">
        <route edges="west east"/>
    </vehicle>
    <vehicle id="car-flow-route-west_1_0-east_1_max--8225652294069766891---1186896431928464155--1-0.12" type="actor-car--7603777082910996887" depart="864.00" departLane="1" departPos="0.00" departSpeed="max" arrivalLane="1" arrivalPos="max">
        <route edges="west east"/>
    </vehicle>
    <vehicle id="car-flow-route-west_2_0-east_2_max--7249692849146943413---1186896431928464155--2-0.12" type="actor-car--7603777082910996887" depart="864.00" departLane="2" departPos="0.00" departSpeed="max" arrivalLane="2" arrivalPos="max">
        <route edges="west east"/>
    </vehicle>
    <vehicle id="car-flow-route-west_0_0-east_0_max-641278529016013199---1186896431928464155--0-0.13" type="actor-car--7603777082910996887" depart="936.00" departLane="0" departPos="0.00" departSpeed="max" arrivalLane="0" arrivalPos="max">
        <route edges="west east"/>
    </vehicle>
    <vehicle id="car-flow-route-west_1_0-east_1_max--8225652294069766891---1186896431928464155--1-0.13" type="actor-car--7603777082910996887" depart="936.00" departLane="1" departPos="0.00" departSpeed="max" arrivalLane="1" arrivalPos="max">
        <route edges="west east"/>
    </vehicle>
    <vehicle id="car-flow-route-west_2_0-east_2_max--7249692849146943413---1186896431928464155--2-0.13" type="actor-car--7603777082910996887" depart="936.00" departLane="2" departPos="0.00" departSpeed="max" arrivalLane="2" arrivalPos="max">
        <route edges="west east"/>
    </vehicle>
    <vehicle id="car-flow-route-west_0_0-east_0_max-641278529016013199---1186896431928464155--0-0.14" type="actor-car--7603777082910996887" depart="1008.00" departLane="0" departPos="0.00" departSpeed="max" arrivalLane="0" arrivalPos="max">
        <route edges="west east"/>
    </vehicle>
    <vehicle id="car-flow-route-west_1_0-east_1_max--8225652294069766891---1186896431928464155--1-0.14" type="actor-car--7603777082910996887" depart="1008.00" departLane="1" departPos="0.00" departSpeed="max" arrivalLane="1" arrivalPos="max">
        <route edges="west east"/>
    </vehicle>
    <vehicle id="car-flow-route-west_2_0-east_2_max--7249692849146943413---1186896431928464155--2-0.14" type="actor-car--7603777082910996887" depart="1008.00" departLane="2" departPos="0.00" departSpeed="max" arrivalLane="2" arrivalPos="max">
        <route edges="west east"/>
    </vehicle>
    <vehicle id="car-flow-route-west_0_0-east_0_max-641278529016013199---1186896431928464155--0-0.15" type="actor-car--7603777082910996887" depart="1080.00" departLane="0" departPos="0.00" departSpeed="max" arrivalLane="0" arrivalPos="max">
        <route edges="west east"/>
    </vehicle>
    <vehicle id="car-flow-route-west_1_0-east_1_max--8225652294069766891---1186896431928464155--1-0.15" type="actor-car--7603777082910996887" depart="1080.00" departLane="1" departPos="0.00" departSpeed="max" arrivalLane="1" arrivalPos="max">
        <route edges="west east"/>
    </vehicle>
    <vehicle id="car-flow-route-west_2_0-east_2_max--7249692849146943413---1186896431928464155--2-0.15" type="actor-car--7603777082910996887" depart="1080.00" departLane="2" departPos="0.00" departSpeed="max" arrivalLane="2" arrivalPos="max">
        <route edges="west east"/>
    </vehicle>
    <vehicle id="car-flow-route-west_0_0-east_0_max-641278529016013199---1186896431928464155--0-0.16" type="actor-car--7603777082910996887" depart="1152.00" departLane="0" departPos="0.00" departSpeed="max" arrivalLane="0" arrivalPos="max">
        <route edges="west east"/>
    </vehicle>
    <vehicle id="car-flow-route-west_1_0-east_1_max--8225652294069766891---1186896431928464155--1-0.16" type="actor-car--7603777082910996887" depart="1152.00" departLane="1" departPos="0.00" departSpeed="max" arrivalLane="1" arrivalPos="max">
        <route edges="west east"/>
    </vehicle>
    <vehicle id="car-flow-route-west_2_0-east_2_max--7249692849146943413---1186896431928464155--2-0.16" type="actor-car--7603777082910996887" depart="1152.00" departLane="2" departPos="0.00" departSpeed="max" arrivalLane="2" arrivalPos="max">
        <route edges="west east"/>
    </vehicle>
    <vehicle id="car-flow-route-west_0_0-east_0_max-641278529016013199---1186896431928464155--0-0.17" type="actor-car--7603777082910996887" depart="1224.00" departLane="0" departPos="0.00" departSpeed="max" arrivalLane="0" arrivalPos="max">
        <route edges="west east"/>
    </vehicle>
    <vehicle id="car-flow-route-west_1_0-east_1_max--8225652294069766891---1186896431928464155--1-0.17" type="actor-car--7603777082910996887" depart="1224.00" departLane="1" departPos="0.00" departSpeed="max" arrivalLane="1" arrivalPos="max">
        <route edges="west east"/>
    </vehicle>
    <vehicle id="car-flow-route-west_2_0-east_2_max--7249692849146943413---1186896431928464155--2-0.17" type="actor-car--7603777082910996887" depart="1224.00" departLane="2" departPos="0.00" departSpeed="max" arrivalLane="2" arrivalPos="max">
        <route edges="west east"/>
    </vehicle>
    <vehicle id="car-flow-route-west_0_0-east_0_max-641278529016013199---1186896431928464155--0-0.18" type="actor-car--7603777082910996887" depart="1296.00" departLane="0" departPos="0.00" departSpeed="max" arrivalLane="0" arrivalPos="max">
        <route edges="west east"/>
    </vehicle>
    <vehicle id="car-flow-route-west_1_0-east_1_max--8225652294069766891---1186896431928464155--1-0.18" type="actor-car--7603777082910996887" depart="1296.00" departLane="1" departPos="0.00" departSpeed="max" arrivalLane="1" arrivalPos="max">
        <route edges="west east"/>
    </vehicle>
    <vehicle id="car-flow-route-west_2_0-east_2_max--7249692849146943413---1186896431928464155--2-0.18" type="actor-car--7603777082910996887" depart="1296.00" departLane="2" departPos="0.00" departSpeed="max" arrivalLane="2" arrivalPos="max">
        <route edges="west east"/>
    </vehicle>
    <vehicle id="car-flow-route-west_0_0-east_0_max-641278529016013199---1186896431928464155--0-0.19" type="actor-car--7603777082910996887" depart="1368.00" departLane="0" departPos="0.00" departSpeed="max" arrivalLane="0" arrivalPos="max">
        <route edges="west east"/>
    </vehicle>
    <vehicle id="car-flow-route-west_1_0-east_1_max--8225652294069766891---1186896431928464155--1-0.19" type="actor-car--7603777082910996887" depart="1368.00" departLane="1" departPos="0.00" departSpeed="max" arrivalLane="1" arrivalPos="max">
        <route edges="west east"/>
    </vehicle>
    <vehicle id="car-flow-route-west_2_0-east_2_max--7249692849146943413---1186896431928464155--2-0.19" type="actor-car--7603777082910996887" depart="1368.00" departLane="2" departPos="0.00" departSpeed="max" arrivalLane="2" arrivalPos="max">
        <route edges="west east"/>
    </vehicle>
    <vehicle id="car-flow-route-west_0_0-east_0_max-641278529016013199---1186896431928464155--0-0.20" type="actor-car--7603777082910996887" depart="1440.00" departLane="0" departPos="0.00" departSpeed="max" arrivalLane="0" arrivalPos="max">
        <route edges="west east"/>
    </vehicle>
    <vehicle id="car-flow-route-west_1_0-east_1_max--8225652294069766891---1186896431928464155--1-0.20" type="actor-car--7603777082910996887" depart="1440.00" departLane="1" departPos="0.00" departSpeed="max" arrivalLane="1" arrivalPos="max">
        <route edges="west east"/>
    </vehicle>
    <vehicle id="car-flow-route-west_2_0-east_2_max--7249692849146943413---1186896431928464155--2-0.20" type="actor-car--7603777082910996887" depart="1440.00" departLane="2" departPos="0.00" departSpeed="max" arrivalLane="2" arrivalPos="max">
        <route edges="west east"/>
    </vehicle>
    <vehicle id="car-flow-route-west_0_0-east_0_max-641278529016013199---1186896431928464155--0-0.21" type="actor-car--7603777082910996887" depart="1512.00" departLane="0" departPos="0.00" departSpeed="max" arrivalLane="0" arrivalPos="max">
        <route edges="west east"/>
    </vehicle>
    <vehicle id="car-flow-route-west_1_0-east_1_max--8225652294069766891---1186896431928464155--1-0.21" type="actor-car--7603777082910996887" depart="1512.00" departLane="1" departPos="0.00" departSpeed="max" arrivalLane="1" arrivalPos="max">
        <route edges="west east"/>
    </vehicle>
    <vehicle id="car-flow-route-west_2_0-east_2_max--7249692849146943413---1186896431928464155--2-0.21" type="actor-car--7603777082910996887" depart="1512.00" departLane="2" departPos="0.00" departSpeed="max" arrivalLane="2" arrivalPos="max">
        <route edges="west east"/>
    </vehicle>
    <vehicle id="car-flow-route-west_0_0-east_0_max-641278529016013199---1186896431928464155--0-0.22" type="actor-car--7603777082910996887" depart="1584.00" departLane="0" departPos="0.00" departSpeed="max" arrivalLane="0" arrivalPos="max">
        <route edges="west east"/>
    </vehicle>
    <vehicle id="car-flow-route-west_1_0-east_1_max--8225652294069766891---1186896431928464155--1-0.22" type="actor-car--7603777082910996887" depart="1584.00" departLane="1" departPos="0.00" departSpeed="max" arrivalLane="1" arrivalPos="max">
        <route edges="west east"/>
    </vehicle>
    <vehicle id="car-flow-route-west_2_0-east_2_max--7249692849146943413---1186896431928464155--2-0.22" type="actor-car--7603777082910996887" depart="1584.00" departLane="2" departPos="0.00" departSpeed="max" arrivalLane="2" arrivalPos="max">
        <route edges="west east"/>
    </vehicle>
    <vehicle id="car-flow-route-west_0_0-east_0_max-641278529016013199---1186896431928464155--0-0.23" type="actor-car--7603777082910996887" depart="1656.00" departLane="0" departPos="0.00" departSpeed="max" arrivalLane="0" arrivalPos="max">
        <route edges="west east"/>
    </vehicle>
    <vehicle id="car-flow-route-west_1_0-east_1_max--8225652294069766891---1186896431928464155--1-0.23" type="actor-car--7603777082910996887" depart="1656.00" departLane="1" departPos="0.00" departSpeed="max" arrivalLane="1" arrivalPos="max">
        <route edges="west east"/>
    </vehicle>
    <vehicle id="car-flow-route-west_2_0-east_2_max--7249692849146943413---1186896431928464155--2-0.23" type="actor-car--7603777082910996887" depart="1656.00" departLane="2" departPos="0.00" departSpeed="max" arrivalLane="2" arrivalPos="max">
        <route edges="west east"/>
    </vehicle>
    <vehicle id="car-flow-route-west_0_0-east_0_max-641278529016013199---1186896431928464155--0-0.24" type="actor-car--7603777082910996887" depart="1728.00" departLane="0" departPos="0.00" departSpeed="max" arrivalLane="0" arrivalPos="max">
        <route edges="west east"/>
    </vehicle>
    <vehicle id="car-flow-route-west_1_0-east_1_max--8225652294069766891---1186896431928464155--1-0.24" type="actor-car--7603777082910996887" depart="1728.00" departLane="1" departPos="0.00" departSpeed="max" arrivalLane="1" arrivalPos="max">
        <route edges="west east"/>
    </vehicle>
    <vehicle id="car-flow-route-west_2_0-east_2_max--7249692849146943413---1186896431928464155--2-0.24" type="actor-car--7603777082910996887" depart="1728.00" departLane="2" departPos="0.00" departSpeed="max" arrivalLane="2" arrivalPos="max">
        <route edges="west east"/>
    </vehicle>
    <vehicle id="car-flow-route-west_0_0-east_0_max-641278529016013199---1186896431928464155--0-0.25" type="actor-car--7603777082910996887" depart="1800.00" departLane="0" departPos="0.00" departSpeed="max" arrivalLane="0" arrivalPos="max">
        <route edges="west east"/>
    </vehicle>
    <vehicle id="car-flow-route-west_1_0-east_1_max--8225652294069766891---1186896431928464155--1-0.25" type="actor-car--7603777082910996887" depart="1800.00" departLane="1" departPos="0.00" departSpeed="max" arrivalLane="1" arrivalPos="max">
        <route edges="west east"/>
    </vehicle>
    <vehicle id="car-flow-route-west_2_0-east_2_max--7249692849146943413---1186896431928464155--2-0.25" type="actor-car--7603777082910996887" depart="1800.00" departLane="2" departPos="0.00" departSpeed="max" arrivalLane="2" arrivalPos="max">
        <route edges="west east"/>
    </vehicle>
    <vehicle id="car-flow-route-west_0_0-east_0_max-641278529016013199---1186896431928464155--0-0.26" type="actor-car--7603777082910996887" depart="1872.00" departLane="0" departPos="0.00" departSpeed="max" arrivalLane="0" arrivalPos="max">
        <route edges="west east"/>
    </vehicle>
    <vehicle id="car-flow-route-west_1_0-east_1_max--8225652294069766891---1186896431928464155--1-0.26" type="actor-car--7603777082910996887" depart="1872.00" departLane="1" departPos="0.00" departSpeed="max" arrivalLane="1" arrivalPos="max">
        <route edges="west east"/>
    </vehicle>
    <vehicle id="car-flow-route-west_2_0-east_2_max--7249692849146943413---1186896431928464155--2-0.26" type="actor-car--7603777082910996887" depart="1872.00" departLane="2" departPos="0.00" departSpeed="max" arrivalLane="2" arrivalPos="max">
        <route edges="west east"/>
    </vehicle>
    <vehicle id="car-flow-route-west_0_0-east_0_max-641278529016013199---1186896431928464155--0-0.27" type="actor-car--7603777082910996887" depart="1944.00" departLane="0" departPos="0.00" departSpeed="max" arrivalLane="0" arrivalPos="max">
        <route edges="west east"/>
    </vehicle>
    <vehicle id="car-flow-route-west_1_0-east_1_max--8225652294069766891---1186896431928464155--1-0.27" type="actor-car--7603777082910996887" depart="1944.00" departLane="1" departPos="0.00" departSpeed="max" arrivalLane="1" arrivalPos="max">
        <route edges="west east"/>
    </vehicle>
    <vehicle id="car-flow-route-west_2_0-east_2_max--7249692849146943413---1186896431928464155--2-0.27" type="actor-car--7603777082910996887" depart="1944.00" departLane="2" departPos="0.00" departSpeed="max" arrivalLane="2" arrivalPos="max">
        <route edges="west east"/>
    </vehicle>
    <vehicle id="car-flow-route-west_0_0-east_0_max-641278529016013199---1186896431928464155--0-0.28" type="actor-car--7603777082910996887" depart="2016.00" departLane="0" departPos="0.00" departSpeed="max" arrivalLane="0" arrivalPos="max">
        <route edges="west east"/>
    </vehicle>
    <vehicle id="car-flow-route-west_1_0-east_1_max--8225652294069766891---1186896431928464155--1-0.28" type="actor-car--7603777082910996887" depart="2016.00" departLane="1" departPos="0.00" departSpeed="max" arrivalLane="1" arrivalPos="max">
        <route edges="west east"/>
    </vehicle>
    <vehicle id="car-flow-route-west_2_0-east_2_max--7249692849146943413---1186896431928464155--2-0.28" type="actor-car--7603777082910996887" depart="2016.00" departLane="2" departPos="0.00" departSpeed="max" arrivalLane="2" arrivalPos="max">
        <route edges="west east"/>
    </vehicle>
    <vehicle id="car-flow-route-west_0_0-east_0_max-641278529016013199---1186896431928464155--0-0.29" type="actor-car--7603777082910996887" depart="2088.00" departLane="0" departPos="0.00" departSpeed="max" arrivalLane="0" arrivalPos="max">
        <route edges="west east"/>
    </vehicle>
    <vehicle id="car-flow-route-west_1_0-east_1_max--8225652294069766891---1186896431928464155--1-0.29" type="actor-car--7603777082910996887" depart="2088.00" departLane="1" departPos="0.00" departSpeed="max" arrivalLane="1" arrivalPos="max">
        <route edges="west east"/>
    </vehicle>
    <vehicle id="car-flow-route-west_2_0-east_2_max--7249692849146943413---1186896431928464155--2-0.29" type="actor-car--7603777082910996887" depart="2088.00" departLane="2" departPos="0.00" departSpeed="max" arrivalLane="2" arrivalPos="max">
        <route edges="west east"/>
    </vehicle>
    <vehicle id="car-flow-route-west_0_0-east_0_max-641278529016013199---1186896431928464155--0-0.30" type="actor-car--7603777082910996887" depart="2160.00" departLane="0" departPos="0.00" departSpeed="max" arrivalLane="0" arrivalPos="max">
        <route edges="west east"/>
    </vehicle>
    <vehicle id="car-flow-route-west_1_0-east_1_max--8225652294069766891---1186896431928464155--1-0.30" type="actor-car--7603777082910996887" depart="2160.00" departLane="1" departPos="0.00" departSpeed="max" arrivalLane="1" arrivalPos="max">
        <route edges="west east"/>
    </vehicle>
    <vehicle id="car-flow-route-west_2_0-east_2_max--7249692849146943413---1186896431928464155--2-0.30" type="actor-car--7603777082910996887" depart="2160.00" departLane="2" departPos="0.00" departSpeed="max" arrivalLane="2" arrivalPos="max">
        <route edges="west east"/>
    </vehicle>
    <vehicle id="car-flow-route-west_0_0-east_0_max-641278529016013199---1186896431928464155--0-0.31" type="actor-car--7603777082910996887" depart="2232.00" departLane="0" departPos="0.00" departSpeed="max" arrivalLane="0" arrivalPos="max">
        <route edges="west east"/>
    </vehicle>
    <vehicle id="car-flow-route-west_1_0-east_1_max--8225652294069766891---1186896431928464155--1-0.31" type="actor-car--7603777082910996887" depart="2232.00" departLane="1" departPos="0.00" departSpeed="max" arrivalLane="1" arrivalPos="max">
        <route edges="west east"/>
    </vehicle>
    <vehicle id="car-flow-route-west_2_0-east_2_max--7249692849146943413---1186896431928464155--2-0.31" type="actor-car--7603777082910996887" depart="2232.00" departLane="2" departPos="0.00" departSpeed="max" arrivalLane="2" arrivalPos="max">
        <route edges="west east"/>
    </vehicle>
    <vehicle id="car-flow-route-west_0_0-east_0_max-641278529016013199---1186896431928464155--0-0.32" type="actor-car--7603777082910996887" depart="2304.00" departLane="0" departPos="0.00" departSpeed="max" arrivalLane="0" arrivalPos="max">
        <route edges="west east"/>
    </vehicle>
    <vehicle id="car-flow-route-west_1_0-east_1_max--8225652294069766891---1186896431928464155--1-0.32" type="actor-car--7603777082910996887" depart="2304.00" departLane="1" departPos="0.00" departSpeed="max" arrivalLane="1" arrivalPos="max">
        <route edges="west east"/>
    </vehicle>