<?xml version="1.0" encoding="UTF-8"?>

<!-- generated on 2021-05-21 00:45:29 by Eclipse SUMO netconvert Version 1.9.2
<configuration xmlns:xsi="http://www.w3.org/2001/XMLSchema-instance" xsi:noNamespaceSchemaLocation="http://sumo.dlr.de/xsd/netconvertConfiguration.xsd">

    <input>
        <sumo-net-file value="scenarios/minicity/map.net.xml"/>
    </input>

    <output>
        <output-file value="scenarios/minicity/shifted_map-AUTOGEN.net.xml"/>
    </output>

    <processing>
        <geometry.min-radius.fix.railways value="false"/>
        <geometry.max-grade.fix value="false"/>
        <offset.disable-normalization value="false"/>
        <lefthand value="false"/>
    </processing>

    <junctions>
        <no-turnarounds value="true"/>
        <junctions.corner-detail value="5"/>
        <junctions.limit-turn-speed value="5.5"/>
        <rectangular-lane-cut value="false"/>
    </junctions>

    <pedestrian>
        <walkingareas value="false"/>
    </pedestrian>

    <report>
        <aggregate-warnings value="5"/>
    </report>

</configuration>
-->

<net version="1.9" junctionCornerDetail="5" limitTurnSpeed="5.50" xmlns:xsi="http://www.w3.org/2001/XMLSchema-instance" xsi:noNamespaceSchemaLocation="http://sumo.dlr.de/xsd/net_file.xsd">

    <location netOffset="-628880.72,-4835150.66" convBoundary="0.00,0.00,1440.96,1393.29" origBoundary="-79.403089,43.653893,-79.379859,43.673360" projParameter="+proj=utm +zone=17 +ellps=WGS84 +datum=WGS84 +units=m +no_defs"/>

    <type id="highway.bridleway" priority="1" numLanes="1" speed="2.78" oneway="1" width="2.00"/>
    <type id="highway.bus_guideway" priority="1" numLanes="1" speed="27.78" oneway="1"/>
    <type id="highway.cycleway" priority="1" numLanes="1" speed="8.33" oneway="1" width="1.00"/>
    <type id="highway.footway" priority="1" numLanes="1" speed="2.78" oneway="1" width="2.00"/>
    <type id="highway.ford" priority="1" numLanes="1" speed="2.78" oneway="1"/>
    <type id="highway.living_street" priority="2" numLanes="1" speed="2.78" oneway="1"/>
    <type id="highway.motorway" priority="14" numLanes="2" speed="39.44" oneway="1"/>
    <type id="highway.motorway_link" priority="9" numLanes="1" speed="22.22" oneway="1"/>
    <type id="highway.path" priority="1" numLanes="1" speed="2.78" oneway="1" width="2.00"/>
    <type id="highway.pedestrian" priority="1" numLanes="1" speed="2.78" oneway="1" width="2.00"/>
    <type id="highway.primary" priority="12" numLanes="2" speed="27.78" oneway="1"/>
    <type id="highway.primary_link" priority="7" numLanes="1" speed="22.22" oneway="1"/>
    <type id="highway.raceway" priority="15" numLanes="2" speed="83.33" oneway="1"/>
    <type id="highway.residential" priority="3" numLanes="1" speed="13.89" oneway="1"/>
    <type id="highway.secondary" priority="11" numLanes="1" speed="27.78" oneway="1"/>
    <type id="highway.secondary_link" priority="6" numLanes="1" speed="22.22" oneway="1"/>
    <type id="highway.service" priority="1" numLanes="1" speed="5.56" oneway="1"/>
    <type id="highway.stairs" priority="1" numLanes="1" speed="1.39" oneway="1" width="2.00"/>
    <type id="highway.step" priority="1" numLanes="1" speed="1.39" oneway="1" width="2.00"/>
    <type id="highway.steps" priority="1" numLanes="1" speed="1.39" oneway="1" width="2.00"/>
    <type id="highway.tertiary" priority="10" numLanes="1" speed="22.22" oneway="1"/>
    <type id="highway.tertiary_link" priority="5" numLanes="1" speed="22.22" oneway="1"/>
    <type id="highway.track" priority="1" numLanes="1" speed="5.56" oneway="1"/>
    <type id="highway.trunk" priority="13" numLanes="2" speed="27.78" oneway="1"/>
    <type id="highway.trunk_link" priority="8" numLanes="1" speed="22.22" oneway="1"/>
    <type id="highway.unclassified" priority="4" numLanes="1" speed="13.89" oneway="1"/>
    <type id="highway.unsurfaced" priority="1" numLanes="1" speed="8.33" oneway="1"/>
    <type id="railway.highspeed" priority="21" numLanes="1" speed="69.44" oneway="1"/>
    <type id="railway.light_rail" priority="19" numLanes="1" speed="27.78" oneway="1"/>
    <type id="railway.preserved" priority="16" numLanes="1" speed="27.78" oneway="1"/>
    <type id="railway.rail" priority="20" numLanes="1" speed="44.44" oneway="1"/>
    <type id="railway.subway" priority="18" numLanes="1" speed="27.78" oneway="1"/>
    <type id="railway.tram" priority="17" numLanes="1" speed="13.89" oneway="1"/>

    <edge id=":1128901966_0" function="internal">
        <lane id=":1128901966_0_0" index="0" speed="6.59" length="9.12" shape="1095.06,461.43 1092.62,461.06 1090.62,461.57 1089.07,462.95 1087.96,465.20"/>
    </edge>
    <edge id=":1128901966_1" function="internal">
        <lane id=":1128901966_1_0" index="0" speed="11.11" length="14.37" shape="1095.06,461.43 1081.34,457.15"/>
    </edge>
    <edge id=":1128901966_2" function="internal">
        <lane id=":1128901966_2_0" index="0" speed="11.11" length="14.32" shape="1082.32,454.10 1095.99,458.37"/>
    </edge>
    <edge id=":1128901966_3" function="internal">
        <lane id=":1128901966_3_0" index="0" speed="7.99" length="5.84" shape="1082.32,454.10 1085.83,455.81 1087.10,457.27"/>
    </edge>
    <edge id=":1128901966_6" function="internal">
        <lane id=":1128901966_6_0" index="0" speed="7.99" length="8.39" shape="1087.10,457.27 1087.94,458.23 1088.65,461.36 1087.96,465.20"/>
    </edge>
    <edge id=":1128901966_4" function="internal">
        <lane id=":1128901966_4_0" index="0" speed="6.49" length="9.03" shape="1084.92,464.20 1085.36,461.76 1084.91,459.77 1083.57,458.24 1081.34,457.15"/>
    </edge>
    <edge id=":1128901966_5" function="internal">
        <lane id=":1128901966_5_0" index="0" speed="8.07" length="14.18" shape="1084.92,464.20 1086.65,460.71 1089.07,458.57 1092.18,457.79 1095.99,458.37"/>
    </edge>
    <edge id=":1224706017_0" function="internal">
        <lane id=":1224706017_0_0" index="0" speed="13.89" length="0.22" shape="568.43,1245.42 568.38,1245.62"/>
        <lane id=":1224706017_0_1" index="1" speed="13.89" length="0.22" shape="565.37,1244.50 565.30,1244.73"/>
    </edge>
    <edge id=":1224706017_2" function="internal">
        <lane id=":1224706017_2_0" index="0" speed="13.89" length="0.33" shape="556.08,1242.07 556.18,1241.71"/>
        <lane id=":1224706017_2_1" index="1" speed="13.89" length="0.33" shape="559.15,1242.96 559.25,1242.64"/>
        <lane id=":1224706017_2_2" index="2" speed="13.89" length="0.33" shape="562.23,1243.85 562.31,1243.57"/>
    </edge>
    <edge id=":1224706018_0" function="internal">
        <lane id=":1224706018_0_0" index="0" speed="13.89" length="0.28" shape="560.92,1270.52 560.85,1270.78"/>
        <lane id=":1224706018_0_1" index="1" speed="13.89" length="0.28" shape="557.86,1269.59 557.78,1269.86"/>
    </edge>
    <edge id=":1224706018_2" function="internal">
        <lane id=":1224706018_2_0" index="0" speed="13.89" length="0.31" shape="548.59,1267.10 548.68,1266.79"/>
        <lane id=":1224706018_2_1" index="1" speed="13.89" length="0.31" shape="551.65,1268.02 551.74,1267.72"/>
        <lane id=":1224706018_2_2" index="2" speed="13.89" length="0.31" shape="554.72,1268.94 554.80,1268.65"/>
    </edge>
    <edge id=":123347786_0" function="internal">
        <lane id=":123347786_0_0" index="0" speed="5.56" length="14.49" shape="585.19,194.91 580.74,208.70"/>
    </edge>
    <edge id=":123347786_1" function="internal">
        <lane id=":123347786_1_0" index="0" speed="5.56" length="5.95" shape="585.19,194.91 583.51,198.39 581.94,199.76"/>
    </edge>
    <edge id=":123347786_6" function="internal">
        <lane id=":123347786_6_0" index="0" speed="5.56" length="8.31" shape="581.94,199.76 581.09,200.50 577.94,201.22 574.04,200.55"/>
    </edge>
    <edge id=":123347786_2" function="internal">
        <lane id=":123347786_2_0" index="0" speed="5.56" length="9.01" shape="575.10,197.53 577.55,197.95 579.55,197.49 581.07,196.16 582.13,193.95"/>
    </edge>
    <edge id=":123347786_3" function="internal">
        <lane id=":123347786_3_0" index="0" speed="5.56" length="14.31" shape="575.10,197.53 578.62,199.24 580.74,201.67 581.44,204.82 580.74,208.70"/>
    </edge>
    <edge id=":123347786_4" function="internal">
        <lane id=":123347786_4_0" index="0" speed="5.56" length="9.17" shape="577.70,207.68 578.15,205.21 577.69,203.20 576.32,201.65 574.04,200.55"/>
    </edge>
    <edge id=":123347786_5" function="internal">
        <lane id=":123347786_5_0" index="0" speed="5.56" length="14.43" shape="577.70,207.68 582.13,193.95"/>
    </edge>
    <edge id=":123347984_0" function="internal">
        <lane id=":123347984_0_0" index="0" speed="6.44" length="9.03" shape="415.77,156.92 413.32,156.45 411.34,156.88 409.82,158.23 408.75,160.47"/>
    </edge>
    <edge id=":123347984_1" function="internal">
        <lane id=":123347984_1_0" index="0" speed="6.95" length="14.26" shape="415.77,156.92 412.26,155.13 410.15,152.67 409.42,149.54 410.08,145.73"/>
    </edge>
    <edge id=":123347984_2" function="internal">
        <lane id=":123347984_2_0" index="0" speed="6.59" length="9.16" shape="413.12,146.72 412.70,149.16 413.18,151.16 414.55,152.74 416.81,153.89"/>
    </edge>
    <edge id=":123347984_3" function="internal">
        <lane id=":123347984_3_0" index="0" speed="8.33" length="14.43" shape="413.12,146.72 408.75,160.47"/>
    </edge>
    <edge id=":123347984_4" function="internal">
        <lane id=":123347984_4_0" index="0" speed="8.33" length="14.48" shape="405.70,159.53 410.08,145.73"/>
    </edge>
    <edge id=":123347984_5" function="internal">
        <lane id=":123347984_5_0" index="0" speed="6.95" length="6.02" shape="405.70,159.53 407.38,155.97 408.94,154.59"/>
    </edge>
    <edge id=":123347984_6" function="internal">
        <lane id=":123347984_6_0" index="0" speed="6.95" length="8.30" shape="408.94,154.59 409.80,153.84 412.94,153.15 416.81,153.89"/>
    </edge>
    <edge id=":1258698109_0" function="internal">
        <lane id=":1258698109_0_0" index="0" speed="5.56" length="14.35" shape="627.48,532.01 624.89,529.43 622.31,527.02 619.59,524.78 616.57,522.75"/>
    </edge>
    <edge id=":1258698109_1" function="internal">
        <lane id=":1258698109_1_0" index="0" speed="5.56" length="5.20" shape="627.48,532.01 625.56,529.29 625.16,527.46"/>
    </edge>
    <edge id=":1258698109_6" function="internal">
        <lane id=":1258698109_6_0" index="0" speed="5.56" length="8.73" shape="625.16,527.46 624.91,526.27 625.53,522.94 627.44,519.29"/>
    </edge>
    <edge id=":1258698109_2" function="internal">
        <lane id=":1258698109_2_0" index="0" speed="5.56" length="8.80" shape="629.67,521.71 628.48,524.00 628.09,526.10 628.51,528.02 629.74,529.74"/>
    </edge>
    <edge id=":1258698109_3" function="internal">
        <lane id=":1258698109_3_0" index="0" speed="5.56" length="14.74" shape="629.67,521.71 627.26,524.15 624.27,525.14 620.71,524.67 616.57,522.75"/>
    </edge>
    <edge id=":1258698109_4" function="internal">
        <lane id=":1258698109_4_0" index="0" speed="5.56" length="9.71" shape="618.88,520.40 621.51,521.59 623.81,521.79 625.79,521.03 627.44,519.29"/>
    </edge>
    <edge id=":1258698109_5" function="internal">
        <lane id=":1258698109_5_0" index="0" speed="5.56" length="14.36" shape="618.88,520.40 621.89,522.45 624.59,524.71 627.15,527.15 629.74,529.74"/>
    </edge>
    <edge id=":127289393_0" function="internal">
        <lane id=":127289393_0_0" index="0" speed="22.22" length="0.35" shape="459.86,728.74 459.52,728.64"/>
    </edge>
    <edge id=":127289393_1" function="internal">
        <lane id=":127289393_1_0" index="0" speed="22.22" length="0.12" shape="460.59,725.62 460.71,725.66"/>
    </edge>
    <edge id=":1404154789_0" function="internal">
        <lane id=":1404154789_0_0" index="0" speed="22.22" length="5.56" shape="289.88,678.02 288.19,678.04 287.03,678.84 285.88,679.63 284.20,679.63"/>
        <lane id=":1404154789_0_1" index="1" speed="22.22" length="5.56" shape="289.88,678.02 285.14,676.57"/>
    </edge>
    <edge id=":1404154789_2" function="internal">
        <lane id=":1404154789_2_0" index="0" speed="22.22" length="4.89" shape="286.09,673.51 290.77,674.94"/>
    </edge>
    <edge id=":1474802478_0" function="internal">
        <lane id=":1474802478_0_0" index="0" speed="13.89" length="11.65" shape="983.28,655.61 972.24,651.90"/>
    </edge>
    <edge id=":1474802478_1" function="internal">
        <lane id=":1474802478_1_0" index="0" speed="9.17" length="5.56" shape="983.28,655.61 980.15,653.96 978.83,652.43"/>
    </edge>
    <edge id=":1474802478_6" function="internal">
        <lane id=":1474802478_6_0" index="0" speed="9.17" length="9.25" shape="978.83,652.43 977.97,651.43 976.73,648.02 976.43,643.72"/>
    </edge>
    <edge id=":1474802478_2" function="internal">
        <lane id=":1474802478_2_0" index="0" speed="7.87" length="10.68" shape="979.63,643.84 979.82,647.04 980.67,649.56 982.16,651.41 984.30,652.58"/>
    </edge>
    <edge id=":1474802478_3" function="internal">
        <lane id=":1474802478_3_0" index="0" speed="7.08" length="13.30" shape="979.63,643.84 979.03,648.25 977.59,651.06 975.33,652.28 972.24,651.90"/>
    </edge>
    <edge id=":1474802478_4" function="internal">
        <lane id=":1474802478_4_0" index="0" speed="5.36" length="7.07" shape="973.26,648.87 974.56,648.92 975.53,648.08 976.15,646.34 976.43,643.72"/>
    </edge>
    <edge id=":1474802478_5" function="internal">
        <lane id=":1474802478_5_0" index="0" speed="13.89" length="11.65" shape="973.26,648.87 984.30,652.58"/>
    </edge>
    <edge id=":152658550_0" function="internal">
        <lane id=":152658550_0_0" index="0" speed="6.52" length="8.62" shape="1063.11,839.81 1060.80,839.44 1058.88,839.87 1057.35,841.10 1056.21,843.15"/>
    </edge>
    <edge id=":152658550_1" function="internal">
        <lane id=":152658550_1_0" index="0" speed="8.33" length="13.67" shape="1063.11,839.81 1059.75,838.71 1056.66,837.57 1053.62,836.30 1050.40,834.81"/>
    </edge>
    <edge id=":152658550_2" function="internal">
        <lane id=":152658550_2_0" index="0" speed="8.33" length="13.21" shape="1051.78,831.93 1054.93,833.39 1057.83,834.60 1060.77,835.68 1064.07,836.76"/>
    </edge>
    <edge id=":152658550_3" function="internal">
        <lane id=":152658550_3_0" index="0" speed="6.95" length="5.55" shape="1051.78,831.93 1054.83,833.96 1055.90,835.52"/>
    </edge>
    <edge id=":152658550_6" function="internal">
        <lane id=":152658550_6_0" index="0" speed="6.95" length="7.98" shape="1055.90,835.52 1056.58,836.50 1057.04,839.57 1056.21,843.15"/>
    </edge>
    <edge id=":152658550_4" function="internal">
        <lane id=":152658550_4_0" index="0" speed="6.57" length="8.67" shape="1053.23,842.01 1053.76,839.71 1053.47,837.74 1052.35,836.11 1050.40,834.81"/>
    </edge>
    <edge id=":152658550_5" function="internal">
        <lane id=":152658550_5_0" index="0" speed="6.95" length="13.55" shape="1053.23,842.01 1055.01,838.79 1057.42,836.84 1060.43,836.16 1064.07,836.76"/>
    </edge>
    <edge id=":152658557_0" function="internal">
        <lane id=":152658557_0_0" index="0" speed="5.56" length="3.95" shape="1054.68,847.14 1054.39,848.27 1054.35,849.09 1054.29,849.90 1053.89,850.98"/>
    </edge>
    <edge id=":152658557_1" function="internal">
        <lane id=":152658557_1_0" index="0" speed="5.56" length="3.94" shape="1049.51,849.24 1050.12,848.25 1050.66,847.65 1051.18,847.03 1051.70,846.00"/>
    </edge>
    <edge id=":1584174287_0" function="internal">
        <lane id=":1584174287_0_0" index="0" speed="5.33" length="2.54" shape="792.17,1178.87 792.40,1179.48 792.41,1180.05 792.27,1180.65 792.04,1181.30"/>
    </edge>
    <edge id=":1584174287_1" function="internal">
        <lane id=":1584174287_1_0" index="0" speed="5.56" length="0.42" shape="789.01,1180.29 789.39,1180.46"/>
    </edge>
    <edge id=":1584174288_0" function="internal">
        <lane id=":1584174288_0_0" index="0" speed="5.56" length="13.97" shape="791.98,1181.49 787.93,1194.87"/>
    </edge>
    <edge id=":1584174288_1" function="internal">
        <lane id=":1584174288_1_0" index="0" speed="5.56" length="14.26" shape="791.98,1181.49 790.40,1184.48 787.95,1186.54 784.64,1187.69 780.47,1187.92"/>
    </edge>
    <edge id=":1584174288_2" function="internal">
        <lane id=":1584174288_2_0" index="0" speed="5.56" length="10.08" shape="780.63,1184.73 783.69,1184.59 786.10,1183.83 787.85,1182.46 788.95,1180.48"/>
    </edge>
    <edge id=":1584174288_3" function="internal">
        <lane id=":1584174288_3_0" index="0" speed="5.56" length="15.12" shape="780.63,1184.73 784.84,1185.55 787.46,1187.51 788.49,1190.61 787.93,1194.87"/>
    </edge>
    <edge id=":1584174288_4" function="internal">
        <lane id=":1584174288_4_0" index="0" speed="5.56" length="9.07" shape="784.85,1194.00 785.18,1191.45 784.56,1189.59 782.99,1188.41 780.47,1187.92"/>
    </edge>
    <edge id=":1584174288_5" function="internal">
        <lane id=":1584174288_5_0" index="0" speed="5.56" length="14.13" shape="784.85,1194.00 788.95,1180.48"/>
    </edge>
    <edge id=":1633443103_0" function="internal">
        <lane id=":1633443103_0_0" index="0" speed="13.89" length="0.30" shape="1182.40,797.88 1182.13,797.80"/>
        <lane id=":1633443103_0_1" index="1" speed="13.89" length="0.30" shape="1183.36,794.83 1183.07,794.74"/>
    </edge>
    <edge id=":1633501863_0" function="internal">
        <lane id=":1633501863_0_0" index="0" speed="7.17" length="11.09" shape="1009.94,664.55 1006.91,663.99 1004.43,664.50 1002.51,666.08 1001.13,668.73"/>
    </edge>
    <edge id=":1633501863_1" function="internal">
        <lane id=":1633501863_1_0" index="0" speed="13.89" length="14.64" shape="1009.94,664.55 996.06,659.91"/>
    </edge>
    <edge id=":1633501863_2" function="internal">
        <lane id=":1633501863_2_0" index="0" speed="13.89" length="14.62" shape="997.08,656.88 1010.95,661.51"/>
    </edge>
    <edge id=":1633501863_3" function="internal">
        <lane id=":1633501863_3_0" index="0" speed="7.99" length="4.99" shape="997.08,656.88 1000.07,658.54 1000.94,659.85"/>
    </edge>
    <edge id=":1633501863_6" function="internal">
        <lane id=":1633501863_6_0" index="0" speed="7.99" length="9.25" shape="1000.94,659.85 1001.74,661.07 1002.09,664.46 1001.13,668.73"/>
    </edge>
    <edge id=":1633501863_4" function="internal">
        <lane id=":1633501863_4_0" index="0" speed="6.00" length="9.08" shape="998.42,666.91 999.56,664.57 999.54,662.63 998.38,661.08 996.06,659.91"/>
    </edge>
    <edge id=":1633501863_5" function="internal">
        <lane id=":1633501863_5_0" index="0" speed="9.11" length="14.75" shape="998.42,666.91 1001.19,663.65 1004.19,661.66 1007.45,660.95 1010.95,661.51"/>
    </edge>
    <edge id=":1633501867_0" function="internal">
        <lane id=":1633501867_0_0" index="0" speed="5.56" length="14.40" shape="985.02,733.06 971.28,728.74"/>
    </edge>
    <edge id=":1633501867_1" function="internal">
        <lane id=":1633501867_1_0" index="0" speed="5.56" length="14.30" shape="985.02,733.06 981.48,731.36 979.36,728.94 978.67,725.80 979.41,721.94"/>
    </edge>
    <edge id=":1633501867_2" function="internal">
        <lane id=":1633501867_2_0" index="0" speed="5.56" length="9.03" shape="982.44,722.98 981.97,725.42 982.40,727.41 983.74,728.94 985.98,730.01"/>
    </edge>
    <edge id=":1633501867_3" function="internal">
        <lane id=":1633501867_3_0" index="0" speed="5.56" length="14.23" shape="982.44,722.98 980.66,726.48 978.21,728.60 975.08,729.36 971.28,728.74"/>
    </edge>
    <edge id=":1633501867_4" function="internal">
        <lane id=":1633501867_4_0" index="0" speed="5.56" length="9.17" shape="972.24,725.69 974.68,726.08 976.69,725.58 978.26,724.20 979.41,721.94"/>
    </edge>
    <edge id=":1633501867_5" function="internal">
        <lane id=":1633501867_5_0" index="0" speed="5.56" length="14.40" shape="972.24,725.69 985.98,730.01"/>
    </edge>
    <edge id=":1721793023_0" function="internal">
        <lane id=":1721793023_0_0" index="0" speed="13.89" length="11.42" shape="972.05,651.84 961.18,648.34"/>
    </edge>
    <edge id=":1721793023_1" function="internal">
        <lane id=":1721793023_1_0" index="0" speed="8.09" length="3.80" shape="972.05,651.84 970.11,650.59 969.37,649.29"/>
    </edge>
    <edge id=":1721793023_6" function="internal">
        <lane id=":1721793023_6_0" index="0" speed="8.09" length="8.32" shape="969.37,649.29 968.86,648.40 968.31,645.25 968.45,641.16"/>
    </edge>
    <edge id=":1721793023_2" function="internal">
        <lane id=":1721793023_2_0" index="0" speed="6.63" length="7.84" shape="971.63,641.50 971.46,644.42 971.64,646.62 972.18,648.08 973.07,648.80"/>
    </edge>
    <edge id=":1721793023_3" function="internal">
        <lane id=":1721793023_3_0" index="0" speed="7.69" length="15.01" shape="971.63,641.50 970.59,645.60 968.49,648.11 965.36,649.02 961.18,648.34"/>
    </edge>
    <edge id=":1721793023_4" function="internal">
        <lane id=":1721793023_4_0" index="0" speed="6.12" length="9.06" shape="962.14,645.28 964.66,645.70 966.56,645.15 967.82,643.63 968.45,641.16"/>
    </edge>
    <edge id=":1721793023_5" function="internal">
        <lane id=":1721793023_5_0" index="0" speed="13.89" length="11.48" shape="962.14,645.28 973.07,648.80"/>
    </edge>
    <edge id=":1721865354_0" function="internal">
        <lane id=":1721865354_0_0" index="0" speed="13.89" length="19.07" shape="856.97,273.76 860.70,269.82 863.00,266.83 864.59,263.43 866.20,258.27"/>
        <lane id=":1721865354_0_1" index="1" speed="13.89" length="19.07" shape="859.87,275.36 863.72,271.24 866.04,268.10 867.63,264.53 869.28,259.15"/>
        <lane id=":1721865354_0_2" index="2" speed="13.89" length="19.07" shape="862.78,276.95 866.74,272.67 869.09,269.37 870.68,265.63 872.35,260.03"/>
    </edge>
    <edge id=":1721865354_3" function="internal">
        <lane id=":1721865354_3_0" index="0" speed="10.52" length="18.92" shape="871.03,277.61 868.69,275.03 867.61,271.09 867.81,265.80 869.28,259.15"/>
        <lane id=":1721865354_3_1" index="1" speed="10.12" length="18.92" shape="871.03,277.61 869.93,275.76 869.79,272.21 870.60,266.97 872.35,260.03"/>
    </edge>
    <edge id=":1721865771_0" function="internal">
        <lane id=":1721865771_0_0" index="0" speed="5.56" length="1.98" shape="1008.65,395.66 1008.71,396.24 1008.71,396.64 1008.64,397.04 1008.48,397.60"/>
    </edge>
    <edge id=":1721865771_1" function="internal">
        <lane id=":1721865771_1_0" index="0" speed="5.56" length="0.66" shape="1005.42,396.67 1005.47,396.48 1005.49,396.35 1005.49,396.21 1005.47,396.02"/>
    </edge>
    <edge id=":1721865829_0" function="internal">
        <lane id=":1721865829_0_0" index="0" speed="5.56" length="0.30" shape="1003.24,414.74 1003.15,415.03"/>
    </edge>
    <edge id=":1721865829_1" function="internal">
        <lane id=":1721865829_1_0" index="0" speed="5.56" length="0.30" shape="1000.10,414.09 1000.18,413.81"/>
    </edge>
    <edge id=":1721865832_0" function="internal">
        <lane id=":1721865832_0_0" index="0" speed="11.11" length="14.42" shape="965.80,421.50 962.29,420.33 958.89,419.15 955.46,418.33 951.86,418.24"/>
    </edge>
    <edge id=":1721865832_1" function="internal">
        <lane id=":1721865832_1_0" index="0" speed="7.97" length="6.79" shape="965.80,421.50 962.16,419.88 960.24,417.82"/>
    </edge>
    <edge id=":1721865832_6" function="internal">
        <lane id=":1721865832_6_0" index="0" speed="7.97" length="7.53" shape="960.24,417.82 959.95,417.52 959.14,414.41 959.75,410.56"/>
    </edge>
    <edge id=":1721865832_2" function="internal">
        <lane id=":1721865832_2_0" index="0" speed="6.50" length="9.16" shape="962.84,411.41 962.45,413.88 962.95,415.87 964.37,417.39 966.68,418.42"/>
    </edge>
    <edge id=":1721865832_3" function="internal">
        <lane id=":1721865832_3_0" index="0" speed="8.33" length="13.69" shape="962.84,411.41 961.47,414.03 959.18,416.04 955.98,417.44 951.86,418.24"/>
    </edge>
    <edge id=":1721865832_4" function="internal">
        <lane id=":1721865832_4_0" index="0" speed="7.60" length="8.70" shape="952.79,414.92 955.40,414.42 957.43,413.52 958.88,412.23 959.75,410.56"/>
    </edge>
    <edge id=":1721865832_5" function="internal">
        <lane id=":1721865832_5_0" index="0" speed="11.11" length="14.43" shape="952.79,414.92 956.39,415.05 959.80,415.95 963.18,417.22 966.68,418.42"/>
    </edge>
    <edge id=":1721865848_0" function="internal">
        <lane id=":1721865848_0_0" index="0" speed="11.11" length="14.27" shape="1003.50,432.53 989.84,428.40"/>
    </edge>
    <edge id=":1721865848_1" function="internal">
        <lane id=":1721865848_1_0" index="0" speed="8.02" length="5.71" shape="1003.50,432.53 1000.04,430.85 998.82,429.44"/>
    </edge>
    <edge id=":1721865848_6" function="internal">
        <lane id=":1721865848_6_0" index="0" speed="8.02" length="8.48" shape="998.82,429.44 997.95,428.44 997.21,425.29 997.84,421.42"/>
    </edge>
    <edge id=":1721865848_2" function="internal">
        <lane id=":1721865848_2_0" index="0" speed="6.51" length="9.00" shape="1000.87,422.44 1000.48,424.89 1000.94,426.88 1002.27,428.41 1004.47,429.48"/>
    </edge>
    <edge id=":1721865848_3" function="internal">
        <lane id=":1721865848_3_0" index="0" speed="8.07" length="14.24" shape="1000.87,422.44 999.21,425.95 996.82,428.12 993.70,428.94 989.84,428.40"/>
    </edge>
    <edge id=":1721865848_4" function="internal">
        <lane id=":1721865848_4_0" index="0" speed="6.61" length="9.22" shape="990.72,425.32 993.20,425.66 995.22,425.13 996.76,423.71 997.84,421.42"/>
    </edge>
    <edge id=":1721865848_5" function="internal">
        <lane id=":1721865848_5_0" index="0" speed="11.11" length="14.36" shape="990.72,425.32 1004.47,429.48"/>
    </edge>
    <edge id=":1721865907_0" function="internal">
        <lane id=":1721865907_0_0" index="0" speed="5.56" length="0.30" shape="732.71,472.35 732.62,472.63"/>
    </edge>
    <edge id=":1721865907_1" function="internal">
        <lane id=":1721865907_1_0" index="0" speed="5.56" length="0.30" shape="729.59,471.60 729.69,471.31"/>
    </edge>
    <edge id=":1721866188_0" function="internal">
        <lane id=":1721866188_0_0" index="0" speed="5.56" length="9.03" shape="816.10,561.43 813.65,561.05 811.67,561.55 810.16,562.92 809.12,565.16"/>
    </edge>
    <edge id=":1721866188_1" function="internal">
        <lane id=":1721866188_1_0" index="0" speed="5.56" length="14.17" shape="816.10,561.43 812.57,559.79 810.39,557.42 809.54,554.33 810.03,550.51"/>
    </edge>
    <edge id=":1721866188_2" function="internal">
        <lane id=":1721866188_2_0" index="0" speed="5.56" length="9.10" shape="813.11,551.37 812.80,553.81 813.35,555.80 814.76,557.31 817.03,558.37"/>
    </edge>
    <edge id=":1721866188_3" function="internal">
        <lane id=":1721866188_3_0" index="0" speed="5.56" length="14.36" shape="813.11,551.37 809.12,565.16"/>
    </edge>
    <edge id=":1721866188_4" function="internal">
        <lane id=":1721866188_4_0" index="0" speed="5.56" length="14.29" shape="806.05,564.24 810.03,550.51"/>
    </edge>
    <edge id=":1721866188_5" function="internal">
        <lane id=":1721866188_5_0" index="0" speed="5.56" length="14.20" shape="806.05,564.24 807.70,560.71 810.07,558.55 813.18,557.77 817.03,558.37"/>
    </edge>
    <edge id=":1721866196_0" function="internal">
        <lane id=":1721866196_0_0" index="0" speed="3.65" length="4.67" shape="846.48,567.34 847.39,568.45 847.54,569.34 846.92,569.98 845.54,570.40"/>
    </edge>
    <edge id=":1721866215_0" function="internal">
        <lane id=":1721866215_0_0" index="0" speed="22.22" length="14.28" shape="745.11,576.36 731.43,572.27"/>
    </edge>
    <edge id=":1721866215_1" function="internal">
        <lane id=":1721866215_1_0" index="0" speed="7.94" length="5.93" shape="745.11,576.36 741.50,574.66 740.20,573.23"/>
    </edge>
    <edge id=":1721866215_6" function="internal">
        <lane id=":1721866215_6_0" index="0" speed="7.94" length="8.34" shape="740.20,573.23 739.33,572.26 738.59,569.16 739.30,565.37"/>
    </edge>
    <edge id=":1721866215_2" function="internal">
        <lane id=":1721866215_2_0" index="0" speed="6.48" length="9.14" shape="742.38,566.25 741.92,568.69 742.38,570.68 743.76,572.22 746.06,573.31"/>
    </edge>
    <edge id=":1721866215_3" function="internal">
        <lane id=":1721866215_3_0" index="0" speed="8.13" length="14.09" shape="742.38,566.25 740.62,569.75 738.21,571.92 735.14,572.76 731.43,572.27"/>
    </edge>
    <edge id=":1721866215_4" function="internal">
        <lane id=":1721866215_4_0" index="0" speed="6.61" length="8.99" shape="732.30,569.20 734.68,569.51 736.64,568.98 738.18,567.60 739.30,565.37"/>
    </edge>
    <edge id=":1721866215_5" function="internal">
        <lane id=":1721866215_5_0" index="0" speed="22.22" length="14.36" shape="732.30,569.20 746.06,573.31"/>
    </edge>
    <edge id=":1721866226_0" function="internal">
        <lane id=":1721866226_0_0" index="0" speed="5.56" length="9.31" shape="810.31,579.73 807.75,579.29 805.63,579.71 803.97,580.98 802.75,583.11"/>
    </edge>
    <edge id=":1721866226_1" function="internal">
        <lane id=":1721866226_1_0" index="0" speed="5.56" length="14.33" shape="810.31,579.73 806.74,578.03 804.62,575.61 803.94,572.47 804.70,568.59"/>
    </edge>
    <edge id=":1721866226_2" function="internal">
        <lane id=":1721866226_2_0" index="0" speed="5.56" length="9.03" shape="807.72,569.65 807.24,572.09 807.67,574.08 809.01,575.60 811.26,576.67"/>
    </edge>
    <edge id=":1721866226_3" function="internal">
        <lane id=":1721866226_3_0" index="0" speed="5.56" length="14.35" shape="807.72,569.65 802.75,583.11"/>
    </edge>
    <edge id=":1721866226_4" function="internal">