<?xml version="1.0" encoding="UTF-8"?>

<!-- generated on 2021-05-21 00:45:28 by Eclipse SUMO netconvert Version 1.9.2
<configuration xmlns:xsi="http://www.w3.org/2001/XMLSchema-instance" xsi:noNamespaceSchemaLocation="http://sumo.dlr.de/xsd/netconvertConfiguration.xsd">

    <input>
        <sumo-net-file value="scenarios/tests/same_location/map.net.xml"/>
    </input>

    <output>
        <output-file value="scenarios/tests/same_location/shifted_map-AUTOGEN.net.xml"/>
    </output>

    <processing>
        <geometry.min-radius.fix.railways value="false"/>
        <geometry.max-grade.fix value="false"/>
        <offset.disable-normalization value="false"/>
        <lefthand value="false"/>
    </processing>

    <junctions>
        <no-turnarounds value="true"/>
        <junctions.corner-detail value="5"/>
        <junctions.limit-turn-speed value="5.5"/>
        <rectangular-lane-cut value="false"/>
    </junctions>

    <pedestrian>
        <walkingareas value="false"/>
    </pedestrian>

    <report>
        <aggregate-warnings value="5"/>
    </report>

</configuration>
-->

<net version="1.9" junctionCornerDetail="5" limitTurnSpeed="5.50" xmlns:xsi="http://www.w3.org/2001/XMLSchema-instance" xsi:noNamespaceSchemaLocation="http://sumo.dlr.de/xsd/net_file.xsd">

    <location netOffset="94.64,-52.42" convBoundary="0.00,0.00,207.50,0.06" origBoundary="-10000000000.00,-10000000000.00,10000000000.00,10000000000.00" projParameter="!"/>

    <edge id=":junction-mid_0" function="internal">
        <lane id=":junction-mid_0_0" index="0" speed="13.89" length="0.10" shape="16.31,1.65 16.31,1.65"/>
    </edge>

    <edge id="edge-east" from="gneJ0" to="junction-mid" priority="-1">
        <lane id="edge-east_0" index="0" speed="13.89" length="191.19" shape="207.50,1.60 16.31,1.65"/>
    </edge>
    <edge id="edge-west" from="junction-mid" to="gneJ2" priority="-1">
        <lane id="edge-west_0" index="0" speed="13.89" length="16.31" shape="16.31,1.65 0.00,1.66"/>
    </edge>

    <junction id="gneJ0" type="dead_end" x="207.50" y="0.00" incLanes="" intLanes="" shape="207.50,0.00 207.50,3.20"/>
    <junction id="gneJ2" type="dead_end" x="0.00" y="0.06" incLanes="edge-west_0" intLanes="" shape="0.00,3.26 -0.00,0.06"/>
    <junction id="junction-mid" type="priority" x="16.31" y="0.05" incLanes="edge-east_0" intLanes=":junction-mid_0_0" shape="16.31,3.25 16.31,0.05 16.31,3.25">
        <request index="0" response="0" foes="0" cont="0"/>
    </junction>

    <connection from="edge-east" to="edge-west" fromLane="0" toLane="0" via=":junction-mid_0_0" dir="s" state="M"/>

    <connection from=":junction-mid_0" to="edge-west" fromLane="0" toLane="0" dir="s" state="M"/>

</net>
